version 2
run DASH-0-20181103-13:40:57-26126
attr configname DASH
attr datetime 20181103-13:40:57
attr experiment DASH
attr inifile omnetpp.ini
attr iterationvars $numUEs=10
attr iterationvarsf numUEs=10-
attr measurement $numUEs=10
attr network vanet_dash_v_0_1.simulations.cars.Highway
attr processid 26126
attr repetition 0
attr replication #0
attr resultdir results
attr runnumber 0
attr seedset 0
itervar numUEs 10
param *.server.numTcpApps 10
param *.server.tcpApp[*].typename "\"TCPGenericSrvApp\""
param *.server.tcpApp[*].localPort "5001 + ancestorIndex(0)"
param *.car[*].numTcpApps 1
param *.car[*].tcpApp[*].typename "\"TCPVideoStreamCliApp\""
param *.car[*].tcpApp[*].connectPort "5001 + ancestorIndex(1)"
param *.car[*].tcpApp[*].connectAddress "\"server\""
param *.car[*].tcpApp[*].dataTransferMode "\"object\""
param *.car[*].tcpApp[*].numRequestsPerSession 1000
param *.car[*].tcpApp[*].idleInterval 1s
param *.car[*].tcpApp[*].startTime 89s
param *.car[*].tcpApp[*].stopTime 90s
param *.car[*].tcpApp[*].video_duration 1000
param *.car[*].tcpApp[*].thinkTime 1s
param *.car[*].tcpApp[*].video_buffer_max_length 1
param **.coreDebug false
param *.playgroundSizeX 20000m
param *.playgroundSizeY 20000m
param *.playgroundSizeZ 50m
param *.veinsManager.moduleType "\"lte.corenetwork.nodes.cars.Car\""
param *.veinsManager.moduleName "\"car\""
param *.veinsManager.moduleDisplayString "\"\""
param *.veinsManager.launchConfig "xmldoc(\"square.launchd.xml\")"
param *.veinsManager.updateInterval 0.1s
param *.car[*].mobilityType "\"VeinsInetMobility\""
param **.deployer.positionUpdateInterval 0.001s
param *.car[*].configurator.mcastGroups "\"224.0.0.10\""
param **.channelControl.pMax 10W
param **.channelControl.alpha 1.0
param **.channelControl.carrierFrequency 2100e+6Hz
param **.lteNic.phy.channelModel "xmldoc(\"config_channel.xml\")"
param **.feedbackComputation "xmldoc(\"config_channel.xml\")"
param **.dynamicCellAssociation true
param **.car[*].masterId 1
param **.car[*].macCellId 1
param **.eNodeB1.macCellId 1
param **.eNodeB1.macNodeId 1
param **.eNodeB2.macCellId 2
param **.eNodeB2.macNodeId 2
param **.eNodeBCount 2
param **.rbAllocationType "\"localized\""
param **.feedbackType "\"ALLBANDS\""
param **.feedbackGeneratorType "\"IDEAL\""
param **.maxHarqRtx 3
param **.numUe 10
param **.deployer.ruRange 50
param **.deployer.ruTxPower "\"50,50,50;\""
param **.deployer.antennaCws "\"2;\""
param **.deployer.numRbDl 25
param **.deployer.numRbUl 25
param **.numBands 25
param **.fbDelay 1
param **.enableHandover true
param **.broadcastMessageInterval 0.5s
param *.eNodeB*.numX2Apps 1
param *.eNodeB*.x2App[*].server.localPort "5000 + ancestorIndex(1)"
param *.eNodeB1.x2App[0].client.connectAddress "\"eNodeB2%x2ppp0\""
param *.eNodeB2.x2App[0].client.connectAddress "\"eNodeB1%x2ppp0\""
param **.sctp.nagleEnabled false
param **.sctp.enableHeartbeats false

scalar Highway.eNodeB1.x2App[0].client ums 1452
scalar Highway.eNodeB2.x2App[0].client ums 1452
scalar Highway hackForCreateResultsFolder 0
scalar Highway.car[0].tcpApp[0] numActiveSessions:max 1
attr interpolationmode sample-hold
attr source sum(connect)
attr title "number of active sessions, max"
scalar Highway.car[0].tcpApp[0] numActiveSessions:timeavg 1
attr interpolationmode sample-hold
attr source sum(connect)
attr title "number of active sessions, timeavg"
scalar Highway.car[0].tcpApp[0] numSessions:last 1
attr source sum(connect+1)/2
attr title "total number of sessions, last"
scalar Highway.car[0].tcpApp[0] rcvdPk:count 16
attr interpolationmode none
attr source rcvdPk
attr title "packets received, count"
scalar Highway.car[0].tcpApp[0] rcvdPk:sum(packetBytes) 2333000
attr interpolationmode none
attr source rcvdPk
attr title "packets received, sum(packetBytes)"
statistic Highway.car[0].tcpApp[0] endToEndDelay:histogram
field count 16
field mean 0.3715
field stddev 0.10224089201489
field min 0.235
field max 0.542
field sum 5.944
field sqrsum 2.364994
attr interpolationmode none
attr source messageAge(rcvdPk)
attr title "end-to-end delay, histogram"
attr unit s
bin	-inf	0
bin	0.15	0
bin	0.16	0
bin	0.17	0
bin	0.18	0
bin	0.19	0
bin	0.2	0
bin	0.21	0
bin	0.22	0
bin	0.23	2
bin	0.24	1
bin	0.25	0
bin	0.26	2
bin	0.27	0
bin	0.28	0
bin	0.29	1
bin	0.3	0
bin	0.31	0
bin	0.32	0
bin	0.33	0
bin	0.34	0
bin	0.35	0
bin	0.36	0
bin	0.37	0
bin	0.38	3
bin	0.39	0
bin	0.4	0
bin	0.41	2
bin	0.42	1
bin	0.43	0
bin	0.44	1
bin	0.45	0
bin	0.46	1
bin	0.47	0
bin	0.48	0
bin	0.49	0
bin	0.5	0
bin	0.51	0
bin	0.52	0
bin	0.53	1
bin	0.54	1
bin	0.55	0
bin	0.56	0
bin	0.57	0
bin	0.58	0
bin	0.59	0
bin	0.6	0
bin	0.61	0
bin	0.62	0
scalar Highway.car[0].tcpApp[0] sentPk:count 16
attr interpolationmode none
attr source sentPk
attr title "packets sent, count"
scalar Highway.car[0].tcpApp[0] sentPk:sum(packetBytes) 3200
attr interpolationmode none
attr source sentPk
attr title "packets sent, sum(packetBytes)"
scalar Highway.car[0].lteNic.pdcpRrc sentPacketToLowerLayer:count 4374
attr interpolationmode none
attr source sentPacketToLowerLayer
scalar Highway.car[0].lteNic.pdcpRrc sentPacketToLowerLayer:sum(packetBytes) 182538
attr interpolationmode none
attr source sentPacketToLowerLayer
scalar Highway.car[0].lteNic.pdcpRrc sentPacketToUpperLayer:count 4373
attr interpolationmode none
attr source sentPacketToUpperLayer
scalar Highway.car[0].lteNic.pdcpRrc sentPacketToUpperLayer:sum(packetBytes) 2507924
attr interpolationmode none
attr source sentPacketToUpperLayer
scalar Highway.car[0].lteNic.pdcpRrc receivedPacketFromLowerLayer:count 4373
attr interpolationmode none
attr source receivedPacketFromLowerLayer
scalar Highway.car[0].lteNic.pdcpRrc receivedPacketFromLowerLayer:sum(packetBytes) 2512297
attr interpolationmode none
attr source receivedPacketFromLowerLayer
scalar Highway.car[0].lteNic.pdcpRrc receivedPacketFromUpperLayer:count 4374
attr interpolationmode none
attr source receivedPacketFromUpperLayer
scalar Highway.car[0].lteNic.pdcpRrc receivedPacketFromUpperLayer:sum(packetBytes) 178164
attr interpolationmode none
attr source receivedPacketFromUpperLayer
scalar Highway.car[0].lteNic.pdcpRrc pdcpdrop3:mean -nan
attr source pdcpdrop3
attr title "Drop at PDCP layer 3, mean"
attr unit ""
scalar Highway.car[0].lteNic.pdcpRrc pdcpdrop2:mean -nan
attr source pdcpdrop2
attr title "Drop at PDCP layer 2, mean"
attr unit ""
scalar Highway.car[0].lteNic.pdcpRrc pdcpdrop1:mean -nan
attr source pdcpdrop1
attr title "Drop at PDCP layer 1, mean"
attr unit ""
scalar Highway.car[0].lteNic.pdcpRrc pdcpdrop0:mean -nan
attr source pdcpdrop0
attr title "Drop at PDCP layer 0, mean"
attr unit ""
scalar Highway.car[0].lteNic.rlc.um rlcPduPacketLossD2D:mean -nan
attr source rlcPduPacketLossD2D
attr title "rlc Packet Loss, mean"
attr unit ""
scalar Highway.car[0].lteNic.rlc.um rlcPduPacketLossDl:mean 0
attr source rlcPduPacketLossDl
attr title "rlc Packet Loss, mean"
attr unit ""
scalar Highway.car[0].lteNic.rlc.um rlcPduPacketLossUl:mean 0
attr source rlcPduPacketLossUl
attr title "rlc Packet Loss, mean"
attr unit ""
scalar Highway.car[0].lteNic.rlc.um rlcPacketLossTotal:mean 0
attr source rlcPacketLossTotal
attr title "rlc Packet Loss, mean"
attr unit ""
scalar Highway.car[0].lteNic.rlc.um rlcPacketLossD2D:mean -nan
attr source rlcPacketLossD2D
attr title "rlc Packet Loss, mean"
attr unit ""
scalar Highway.car[0].lteNic.rlc.um rlcPacketLossDl:mean 0
attr source rlcPacketLossDl
attr title "rlc Packet Loss, mean"
attr unit ""
scalar Highway.car[0].lteNic.rlc.um rlcPacketLossUl:mean 0
attr source rlcPacketLossUl
attr title "rlc Packet Loss, mean"
attr unit ""
scalar Highway.car[0].lteNic.rlc.um rlcCellPacketLossD2D:mean -nan
attr source rlcCellPacketLossD2D
attr title "rlc Cell Packet Loss, mean"
attr unit ""
scalar Highway.car[0].lteNic.rlc.um rlcCellPacketLossUl:mean -nan
attr source rlcCellPacketLossUl
attr title "rlc Cell Packet Loss, mean"
attr unit ""
scalar Highway.car[0].lteNic.rlc.um rlcCellPacketLossDl:mean -nan
attr source rlcCellPacketLossDl
attr title "rlc Cell Packet Loss, mean"
attr unit ""
scalar Highway.car[0].lteNic.rlc.um rlcCellThroughputD2D:mean -nan
attr source rlcCellThroughputD2D
attr title "Cell Throughput at the rlc layer D2D, mean"
attr unit Bps
scalar Highway.car[0].lteNic.rlc.um rlcCellThroughputDl:mean -nan
attr source rlcCellThroughputDl
attr title "Cell Throughput at the rlc layer DL, mean"
attr unit Bps
scalar Highway.car[0].lteNic.rlc.um rlcCellThroughputUl:mean -nan
attr source rlcCellThroughputUl
attr title "Cell Throughput at the rlc layer UL, mean"
attr unit Bps
scalar Highway.car[0].lteNic.rlc.um rlcPduThroughputD2D:mean -nan
attr source rlcPduThroughputD2D
attr title "Throughput at the rlc layer D2D, mean"
attr unit Bps
scalar Highway.car[0].lteNic.rlc.um rlcPduDelayD2D:mean -nan
attr source rlcPduDelayD2D
attr title "Delay at the rlc layer D2D, mean"
attr unit s
scalar Highway.car[0].lteNic.rlc.um rlcPduThroughputUl:mean 8322.3690581596
attr source rlcPduThroughputUl
attr title "Throughput at the rlc layer UL, mean"
attr unit Bps
scalar Highway.car[0].lteNic.rlc.um rlcPduDelayUl:mean 0.0040114367405288
attr source rlcPduDelayUl
attr title "Delay at the rlc layer UL, mean"
attr unit s
scalar Highway.car[0].lteNic.rlc.um rlcPduThroughputDl:mean 112132.63802971
attr source rlcPduThroughputDl
attr title "Throughput at the rlc layer DL, mean"
attr unit Bps
scalar Highway.car[0].lteNic.rlc.um rlcPduDelayDl:mean 0.0039999999999998
attr source rlcPduDelayDl
attr title "Delay at the rlc layer UL, mean"
attr unit s
scalar Highway.car[0].lteNic.rlc.um rlcThroughputD2D:mean -nan
attr source rlcThroughputD2D
attr title "Throughput at the rlc layer D2D, mean"
attr unit Bps
scalar Highway.car[0].lteNic.rlc.um rlcDelayD2D:mean -nan
attr source rlcDelayD2D
attr title "Delay at the rlc layer D2D, mean"
attr unit s
scalar Highway.car[0].lteNic.rlc.um rlcThroughputUl:mean 8186.8801960088
attr source rlcThroughputUl
attr title "Throughput at the rlc layer UL, mean"
attr unit Bps
scalar Highway.car[0].lteNic.rlc.um rlcDelayUl:mean 0.0096799268404209
attr source rlcDelayUl
attr title "Delay at the rlc layer UL, mean"
attr unit s
scalar Highway.car[0].lteNic.rlc.um rlcThroughputDl:mean 111583.82243776
attr source rlcThroughputDl
attr title "Throughput at the rlc layer DL, mean"
attr unit Bps
scalar Highway.car[0].lteNic.rlc.um rlcDelayDl:mean 0.0054393577479993
attr source rlcDelayDl
attr title "Delay at the rlc layer UL, mean"
attr unit s
scalar Highway.car[0].lteNic.rlc.am rlcPduPacketLossD2D:mean -nan
attr source rlcPduPacketLossD2D
attr title "rlc Packet Loss, mean"
attr unit ""
scalar Highway.car[0].lteNic.rlc.am rlcPduPacketLossDl:mean -nan
attr source rlcPduPacketLossDl
attr title "rlc Packet Loss, mean"
attr unit ""
scalar Highway.car[0].lteNic.rlc.am rlcPduPacketLossUl:mean -nan
attr source rlcPduPacketLossUl
attr title "rlc Packet Loss, mean"
attr unit ""
scalar Highway.car[0].lteNic.rlc.am rlcPacketLossTotal:mean -nan
attr source rlcPacketLossTotal
attr title "rlc Packet Loss, mean"
attr unit ""
scalar Highway.car[0].lteNic.rlc.am rlcPacketLossD2D:mean -nan
attr source rlcPacketLossD2D
attr title "rlc Packet Loss, mean"
attr unit ""
scalar Highway.car[0].lteNic.rlc.am rlcPacketLossDl:mean -nan
attr source rlcPacketLossDl
attr title "rlc Packet Loss, mean"
attr unit ""
scalar Highway.car[0].lteNic.rlc.am rlcPacketLossUl:mean -nan
attr source rlcPacketLossUl
attr title "rlc Packet Loss, mean"
attr unit ""
scalar Highway.car[0].lteNic.rlc.am rlcCellPacketLossD2D:mean -nan
attr source rlcCellPacketLossD2D
attr title "rlc Cell Packet Loss, mean"
attr unit ""
scalar Highway.car[0].lteNic.rlc.am rlcCellPacketLossUl:mean -nan
attr source rlcCellPacketLossUl
attr title "rlc Cell Packet Loss, mean"
attr unit ""
scalar Highway.car[0].lteNic.rlc.am rlcCellPacketLossDl:mean -nan
attr source rlcCellPacketLossDl
attr title "rlc Cell Packet Loss, mean"
attr unit ""
scalar Highway.car[0].lteNic.rlc.am rlcCellThroughputD2D:mean -nan
attr source rlcCellThroughputD2D
attr title "Cell Throughput at the rlc layer D2D, mean"
attr unit Bps
scalar Highway.car[0].lteNic.rlc.am rlcCellThroughputDl:mean -nan
attr source rlcCellThroughputDl
attr title "Cell Throughput at the rlc layer DL, mean"
attr unit Bps
scalar Highway.car[0].lteNic.rlc.am rlcCellThroughputUl:mean -nan
attr source rlcCellThroughputUl
attr title "Cell Throughput at the rlc layer UL, mean"
attr unit Bps
scalar Highway.car[0].lteNic.rlc.am rlcPduThroughputD2D:mean -nan
attr source rlcPduThroughputD2D
attr title "Throughput at the rlc layer D2D, mean"
attr unit Bps
scalar Highway.car[0].lteNic.rlc.am rlcPduDelayD2D:mean -nan
attr source rlcPduDelayD2D
attr title "Delay at the rlc layer D2D, mean"
attr unit s
scalar Highway.car[0].lteNic.rlc.am rlcPduThroughputUl:mean -nan
attr source rlcPduThroughputUl
attr title "Throughput at the rlc layer UL, mean"
attr unit Bps
scalar Highway.car[0].lteNic.rlc.am rlcPduDelayUl:mean -nan
attr source rlcPduDelayUl
attr title "Delay at the rlc layer UL, mean"
attr unit s
scalar Highway.car[0].lteNic.rlc.am rlcPduThroughputDl:mean -nan
attr source rlcPduThroughputDl
attr title "Throughput at the rlc layer DL, mean"
attr unit Bps
scalar Highway.car[0].lteNic.rlc.am rlcPduDelayDl:mean -nan
attr source rlcPduDelayDl
attr title "Delay at the rlc layer UL, mean"
attr unit s
scalar Highway.car[0].lteNic.rlc.am rlcThroughputD2D:mean -nan
attr source rlcThroughputD2D
attr title "Throughput at the rlc layer D2D, mean"
attr unit Bps
scalar Highway.car[0].lteNic.rlc.am rlcDelayD2D:mean -nan
attr source rlcDelayD2D
attr title "Delay at the rlc layer D2D, mean"
attr unit s
scalar Highway.car[0].lteNic.rlc.am rlcThroughputUl:mean -nan
attr source rlcThroughputUl
attr title "Throughput at the rlc layer UL, mean"
attr unit Bps
scalar Highway.car[0].lteNic.rlc.am rlcDelayUl:mean -nan
attr source rlcDelayUl
attr title "Delay at the rlc layer UL, mean"
attr unit s
scalar Highway.car[0].lteNic.rlc.am rlcThroughputDl:mean -nan
attr source rlcThroughputDl
attr title "Throughput at the rlc layer DL, mean"
attr unit Bps
scalar Highway.car[0].lteNic.rlc.am rlcDelayDl:mean -nan
attr source rlcDelayDl
attr title "Delay at the rlc layer UL, mean"
attr unit s
scalar Highway.car[0].lteNic.mac cqiDlMuMimo4:mean 14.9921615918
attr source cqiDlMuMimo4
attr title "Average cqi MuMimo band 4, mean"
attr unit cqi
scalar Highway.car[0].lteNic.mac cqiDlMuMimo3:mean 14.997286704854
attr source cqiDlMuMimo3
attr title "Average cqi MuMimo band 3, mean"
attr unit cqi
scalar Highway.car[0].lteNic.mac cqiDlMuMimo2:mean 14.968344889961
attr source cqiDlMuMimo2
attr title "Average cqi MuMimo band 2, mean"
attr unit cqi
scalar Highway.car[0].lteNic.mac cqiDlMuMimo1:mean 14.892372625867
attr source cqiDlMuMimo1
attr title "Average cqi MuMimo band 1, mean"
attr unit cqi
scalar Highway.car[0].lteNic.mac cqiDlMuMimo0:mean 14.996683750377
attr source cqiDlMuMimo0
attr title "Average cqi MuMimo band 0, mean"
attr unit cqi
scalar Highway.car[0].lteNic.mac cqiDlTxDiv4:mean 15
attr source cqiDlTxDiv4
attr title "Average cqi TxDiv band 4, mean"
attr unit cqi
scalar Highway.car[0].lteNic.mac cqiDlTxDiv3:mean 15
attr source cqiDlTxDiv3
attr title "Average cqi TxDiv band 3, mean"
attr unit cqi
scalar Highway.car[0].lteNic.mac cqiDlTxDiv2:mean 15
attr source cqiDlTxDiv2
attr title "Average cqi TxDiv band 2, mean"
attr unit cqi
scalar Highway.car[0].lteNic.mac cqiDlTxDiv1:mean 15
attr source cqiDlTxDiv1
attr title "Average cqi TxDiv band 1, mean"
attr unit cqi
scalar Highway.car[0].lteNic.mac cqiDlTxDiv0:mean 15
attr source cqiDlTxDiv0
attr title "Average cqi TxDiv band 0, mean"
attr unit cqi
scalar Highway.car[0].lteNic.mac cqiDlSpmux4:mean 14.969249321676
attr source cqiDlSpmux4
attr title "Average cqi Spmux band 4, mean"
attr unit cqi
scalar Highway.car[0].lteNic.mac cqiDlSpmux3:mean 14.994874886946
attr source cqiDlSpmux3
attr title "Average cqi Spmux band 3, mean"
attr unit cqi
scalar Highway.car[0].lteNic.mac cqiDlSpmux2:mean 14.895085921013
attr source cqiDlSpmux2
attr title "Average cqi Spmux band 2, mean"
attr unit cqi
scalar Highway.car[0].lteNic.mac cqiDlSpmux1:mean 14.760928549894
attr source cqiDlSpmux1
attr title "Average cqi Spmux band 1, mean"
attr unit cqi
scalar Highway.car[0].lteNic.mac cqiDlSpmux0:mean 14.989448296654
attr source cqiDlSpmux0
attr title "Average cqi Spmux band 0, mean"
attr unit cqi
scalar Highway.car[0].lteNic.mac cqiDlSiso4:mean 14.9921615918
attr source cqiDlSiso4
attr title "Average cqi siso band 4, mean"
attr unit cqi
scalar Highway.car[0].lteNic.mac cqiDlSiso3:mean 14.997286704854
attr source cqiDlSiso3
attr title "Average cqi siso band 3, mean"
attr unit cqi
scalar Highway.car[0].lteNic.mac cqiDlSiso2:mean 14.968344889961
attr source cqiDlSiso2
attr title "Average cqi siso band 2, mean"
attr unit cqi
scalar Highway.car[0].lteNic.mac cqiDlSiso1:mean 14.892372625867
attr source cqiDlSiso1
attr title "Average cqi siso band 1, mean"
attr unit cqi
scalar Highway.car[0].lteNic.mac cqiDlSiso0:mean 14.996683750377
attr source cqiDlSiso0
attr title "Average cqi siso band 0, mean"
attr unit cqi
scalar Highway.car[0].lteNic.mac measuredItbs:mean -nan
attr source measuredItbs
attr title "TBS index, mean"
attr unit ""
scalar Highway.car[0].lteNic.mac harqErrorRate_4th_D2D:mean -nan
attr source harqErrorRate_4th_D2D
attr title "Harq Error Rate D2D, mean"
attr unit ""
scalar Highway.car[0].lteNic.mac harqErrorRate_4th_Dl:mean -nan
attr source harqErrorRate_4th_Dl
attr title "Harq Error Rate Dl, mean"
attr unit ""
scalar Highway.car[0].lteNic.mac harqErrorRate_4th_Ul:mean -nan
attr source harqErrorRate_4th_Ul
attr title "Harq Error Rate Dl, mean"
attr unit ""
scalar Highway.car[0].lteNic.mac harqErrorRate_3rd_D2D:mean -nan
attr source harqErrorRate_3rd_D2D
attr title "Harq Error Rate D2D, mean"
attr unit ""
scalar Highway.car[0].lteNic.mac harqErrorRate_3rd_Dl:mean -nan
attr source harqErrorRate_3rd_Dl
attr title "Harq Error Rate Dl, mean"
attr unit ""
scalar Highway.car[0].lteNic.mac harqErrorRate_3rd_Ul:mean -nan
attr source harqErrorRate_3rd_Ul
attr title "Harq Error Rate Dl, mean"
attr unit ""
scalar Highway.car[0].lteNic.mac harqErrorRate_2nd_D2D:mean -nan
attr source harqErrorRate_2nd_D2D
attr title "Harq Error Rate D2D, mean"
attr unit ""
scalar Highway.car[0].lteNic.mac harqErrorRate_2nd_Dl:mean -nan
attr source harqErrorRate_2nd_Dl
attr title "Harq Error Rate Dl, mean"
attr unit ""
scalar Highway.car[0].lteNic.mac harqErrorRate_2nd_Ul:mean 0
attr source harqErrorRate_2nd_Ul
attr title "Harq Error Rate Dl, mean"
attr unit ""
scalar Highway.car[0].lteNic.mac harqErrorRate_1st_D2D:mean -nan
attr source harqErrorRate_1st_D2D
attr title "Harq Error Rate D2D, mean"
attr unit ""
scalar Highway.car[0].lteNic.mac harqErrorRate_1st_Dl:mean 0
attr source harqErrorRate_1st_Dl
attr title "Harq Error Rate Dl, mean"
attr unit ""
scalar Highway.car[0].lteNic.mac harqErrorRate_1st_Ul:mean 0.0014035087719298
attr source harqErrorRate_1st_Ul
attr title "Harq Error Rate Dl, mean"
attr unit ""
scalar Highway.car[0].lteNic.mac harqErrorRateD2D:mean -nan
attr source harqErrorRateD2D
attr title "Harq Error Rate D2D, mean"
attr unit ""
scalar Highway.car[0].lteNic.mac harqErrorRateDl:mean 0
attr source harqErrorRateDl
attr title "Harq Error Rate Dl, mean"
attr unit ""
scalar Highway.car[0].lteNic.mac harqErrorRateUl:mean 0.0014015416958655
attr source harqErrorRateUl
attr title "Harq Error Rate Dl, mean"
attr unit ""
scalar Highway.car[0].lteNic.mac macBufferOverFlowD2D:mean -nan
attr source macBufferOverFlowD2D
attr title "Mac buffer overflow as function of time, mean"
attr unit Byte/s
scalar Highway.car[0].lteNic.mac macBufferOverFlowUl:mean -nan
attr source macBufferOverFlowUl
attr title "Mac buffer overflow as function of time, mean"
attr unit Byte/s
scalar Highway.car[0].lteNic.mac macBufferOverFlowDl:mean -nan
attr source macBufferOverFlowDl
attr title "Mac buffer overflow as function of time, mean"
attr unit Byte/s
scalar Highway.car[0].lteNic.mac macPacketLossD2D:mean -nan
attr source macPacketLossD2D
attr title "Mac Packet Loss D2D, mean"
attr unit ""
scalar Highway.car[0].lteNic.mac macPacketLossDl:mean 0
attr source macPacketLossDl
attr title "Mac Packet Loss, mean"
attr unit ""
scalar Highway.car[0].lteNic.mac macPacketLossUl:mean 0
attr source macPacketLossUl
attr title "Mac Packet Loss, mean"
attr unit ""
scalar Highway.car[0].lteNic.mac macCellPacketLossD2D:mean -nan
attr source macCellPacketLossD2D
attr title "Mac Cell Packet Loss D2D, mean"
attr unit ""
scalar Highway.car[0].lteNic.mac macCellPacketLossUl:mean -nan
attr source macCellPacketLossUl
attr title "Mac Cell Packet Loss, mean"
attr unit ""
scalar Highway.car[0].lteNic.mac macCellPacketLossDl:mean -nan
attr source macCellPacketLossDl
attr title "Mac Cell Packet Loss, mean"
attr unit ""
scalar Highway.car[0].lteNic.mac macCellThroughputD2D:mean -nan
attr source macCellThroughputD2D
attr title "Cell Throughput at the MAC layer D2D, mean"
attr unit Bps
scalar Highway.car[0].lteNic.mac macCellThroughputDl:mean -nan
attr source macCellThroughputDl
attr title "Cell Throughput at the MAC layer DL, mean"
attr unit Bps
scalar Highway.car[0].lteNic.mac macCellThroughputUl:mean -nan
attr source macCellThroughputUl
attr title "Cell Throughput at the MAC layer UL, mean"
attr unit Bps
scalar Highway.car[0].lteNic.mac macThroughputD2D:mean -nan
attr source macThroughputD2D
attr title "Throughput at the MAC layer D2D, mean"
attr unit Bps
scalar Highway.car[0].lteNic.mac macDelayD2D:mean -nan
attr source macDelayD2D
attr title "Delay at the MAC layer D2D, mean"
attr unit s
scalar Highway.car[0].lteNic.mac macThroughputUl:mean 8454.6192047596
attr source macThroughputUl
attr title "Throughput at the MAC layer UL, mean"
attr unit Bps
scalar Highway.car[0].lteNic.mac macDelayUl:mean 0.0040112280701753
attr source macDelayUl
attr title "Delay at the MAC layer UL, mean"
attr unit s
scalar Highway.car[0].lteNic.mac macThroughputDl:mean 112293.8289084
attr source macThroughputDl
attr title "Throughput at the MAC layer DL, mean"
attr unit Bps
scalar Highway.car[0].lteNic.mac macDelayDl:mean -nan
attr source macDelayDl
attr title "Delay at the MAC layer UL, mean"
attr unit s
scalar Highway.car[0].lteNic.mac sentPacketToLowerLayer:count 4131
attr interpolationmode none
attr source sentPacketToLowerLayer
scalar Highway.car[0].lteNic.mac sentPacketToLowerLayer:sum(packetBytes) 188336
attr interpolationmode none
attr source sentPacketToLowerLayer
scalar Highway.car[0].lteNic.mac sentPacketToUpperLayer:count 3287
attr interpolationmode none
attr source sentPacketToUpperLayer
scalar Highway.car[0].lteNic.mac sentPacketToUpperLayer:sum(packetBytes) 2516015
attr interpolationmode none
attr source sentPacketToUpperLayer
scalar Highway.car[0].lteNic.mac receivedPacketFromLowerLayer:count 5702
attr interpolationmode none
attr source receivedPacketFromLowerLayer
scalar Highway.car[0].lteNic.mac receivedPacketFromLowerLayer:sum(packetBytes) 2519733
attr interpolationmode none
attr source receivedPacketFromLowerLayer
scalar Highway.car[0].lteNic.mac receivedPacketFromUpperLayer:count 5802
attr interpolationmode none
attr source receivedPacketFromUpperLayer
scalar Highway.car[0].lteNic.mac receivedPacketFromUpperLayer:sum(packetBytes) 367874
attr interpolationmode none
attr source receivedPacketFromUpperLayer
scalar Highway.car[0].lteNic.phy averageCqiUl:mean 11.667133847232
attr source averageCqiUl
attr title "Average Cqi reported in UL, mean"
attr unit cqi
scalar Highway.car[0].lteNic.phy averageCqiDl:mean 14.938676707907
attr source averageCqiDl
attr title "Average Cqi reported in DL, mean"
attr unit cqi
scalar Highway.car[0].networkLayer.arp failedARPResolution:count 0
attr title "ARP failed resolutions, count"
scalar Highway.car[0].networkLayer.arp completedARPResolution:count 0
attr title "ARP completed resolutions, count"
scalar Highway.car[0].networkLayer.arp initiatedARPResolution:count 0
attr title "ARP initiated resolutions, count"
scalar Highway.car[0].networkLayer.arp sentReply:count 0
attr title "ARP replies sent, count"
scalar Highway.car[0].networkLayer.arp sentReq:count 0
attr title "ARP request sent, count"
scalar Highway.car[1].tcpApp[0] numActiveSessions:max 1
attr interpolationmode sample-hold
attr source sum(connect)
attr title "number of active sessions, max"
scalar Highway.car[1].tcpApp[0] numActiveSessions:timeavg 1
attr interpolationmode sample-hold
attr source sum(connect)
attr title "number of active sessions, timeavg"
scalar Highway.car[1].tcpApp[0] numSessions:last 1
attr source sum(connect+1)/2
attr title "total number of sessions, last"
scalar Highway.car[1].tcpApp[0] rcvdPk:count 12
attr interpolationmode none
attr source rcvdPk
attr title "packets received, count"
scalar Highway.car[1].tcpApp[0] rcvdPk:sum(packetBytes) 1585000
attr interpolationmode none
attr source rcvdPk
attr title "packets received, sum(packetBytes)"
statistic Highway.car[1].tcpApp[0] endToEndDelay:histogram
field count 12
field mean 0.35241666666667
field stddev 0.079817357799294
field min 0.25
field max 0.46
field sum 4.229
field sqrsum 1.560449
attr interpolationmode none
attr source messageAge(rcvdPk)
attr title "end-to-end delay, histogram"
attr unit s
bin	-inf	0
bin	0.195	0
bin	0.2	0
bin	0.205	0
bin	0.21	0
bin	0.215	0
bin	0.22	0
bin	0.225	0
bin	0.23	0
bin	0.235	0
bin	0.24	0
bin	0.245	0
bin	0.25	1
bin	0.255	1
bin	0.26	1
bin	0.265	0
bin	0.27	0
bin	0.275	0
bin	0.28	0
bin	0.285	0
bin	0.29	1
bin	0.295	0
bin	0.3	1
bin	0.305	0
bin	0.31	1
bin	0.315	0
bin	0.32	0
bin	0.325	0
bin	0.33	0
bin	0.335	0
bin	0.34	0
bin	0.345	0
bin	0.35	0
bin	0.355	0
bin	0.36	0
bin	0.365	0
bin	0.37	0
bin	0.375	0
bin	0.38	0
bin	0.385	1
bin	0.39	0
bin	0.395	0
bin	0.4	0
bin	0.405	0
bin	0.41	0
bin	0.415	0
bin	0.42	2
bin	0.425	1
bin	0.43	1
bin	0.435	0
bin	0.44	0
bin	0.445	0
bin	0.45	0
bin	0.455	1
bin	0.46	0
bin	0.465	0
bin	0.47	0
bin	0.475	0
bin	0.48	0
bin	0.485	0
bin	0.49	0
bin	0.495	0
bin	0.5	0
bin	0.505	0
bin	0.51	0
bin	0.515	0
scalar Highway.car[1].tcpApp[0] sentPk:count 13
attr interpolationmode none
attr source sentPk
attr title "packets sent, count"
scalar Highway.car[1].tcpApp[0] sentPk:sum(packetBytes) 2600
attr interpolationmode none
attr source sentPk
attr title "packets sent, sum(packetBytes)"
scalar Highway.car[1].lteNic.pdcpRrc sentPacketToLowerLayer:count 3040
attr interpolationmode none
attr source sentPacketToLowerLayer
scalar Highway.car[1].lteNic.pdcpRrc sentPacketToLowerLayer:sum(packetBytes) 127244
attr interpolationmode none
attr source sentPacketToLowerLayer
scalar Highway.car[1].lteNic.pdcpRrc sentPacketToUpperLayer:count 3039
attr interpolationmode none
attr source sentPacketToUpperLayer
scalar Highway.car[1].lteNic.pdcpRrc sentPacketToUpperLayer:sum(packetBytes) 1741404
attr interpolationmode none
attr source sentPacketToUpperLayer
scalar Highway.car[1].lteNic.pdcpRrc receivedPacketFromLowerLayer:count 3039
attr interpolationmode none
attr source receivedPacketFromLowerLayer
scalar Highway.car[1].lteNic.pdcpRrc receivedPacketFromLowerLayer:sum(packetBytes) 1744443
attr interpolationmode none
attr source receivedPacketFromLowerLayer
scalar Highway.car[1].lteNic.pdcpRrc receivedPacketFromUpperLayer:count 3040
attr interpolationmode none
attr source receivedPacketFromUpperLayer
scalar Highway.car[1].lteNic.pdcpRrc receivedPacketFromUpperLayer:sum(packetBytes) 124204
attr interpolationmode none
attr source receivedPacketFromUpperLayer
scalar Highway.car[1].lteNic.pdcpRrc pdcpdrop3:mean -nan
attr source pdcpdrop3
attr title "Drop at PDCP layer 3, mean"
attr unit ""
scalar Highway.car[1].lteNic.pdcpRrc pdcpdrop2:mean -nan
attr source pdcpdrop2
attr title "Drop at PDCP layer 2, mean"
attr unit ""
scalar Highway.car[1].lteNic.pdcpRrc pdcpdrop1:mean -nan
attr source pdcpdrop1
attr title "Drop at PDCP layer 1, mean"
attr unit ""
scalar Highway.car[1].lteNic.pdcpRrc pdcpdrop0:mean -nan
attr source pdcpdrop0
attr title "Drop at PDCP layer 0, mean"
attr unit ""
scalar Highway.car[1].lteNic.rlc.um rlcPduPacketLossD2D:mean -nan
attr source rlcPduPacketLossD2D
attr title "rlc Packet Loss, mean"
attr unit ""
scalar Highway.car[1].lteNic.rlc.um rlcPduPacketLossDl:mean 0
attr source rlcPduPacketLossDl
attr title "rlc Packet Loss, mean"
attr unit ""
scalar Highway.car[1].lteNic.rlc.um rlcPduPacketLossUl:mean 0
attr source rlcPduPacketLossUl
attr title "rlc Packet Loss, mean"
attr unit ""
scalar Highway.car[1].lteNic.rlc.um rlcPacketLossTotal:mean 0
attr source rlcPacketLossTotal
attr title "rlc Packet Loss, mean"
attr unit ""
scalar Highway.car[1].lteNic.rlc.um rlcPacketLossD2D:mean -nan
attr source rlcPacketLossD2D
attr title "rlc Packet Loss, mean"
attr unit ""
scalar Highway.car[1].lteNic.rlc.um rlcPacketLossDl:mean 0
attr source rlcPacketLossDl
attr title "rlc Packet Loss, mean"
attr unit ""
scalar Highway.car[1].lteNic.rlc.um rlcPacketLossUl:mean 0
attr source rlcPacketLossUl
attr title "rlc Packet Loss, mean"
attr unit ""
scalar Highway.car[1].lteNic.rlc.um rlcCellPacketLossD2D:mean -nan
attr source rlcCellPacketLossD2D
attr title "rlc Cell Packet Loss, mean"
attr unit ""
scalar Highway.car[1].lteNic.rlc.um rlcCellPacketLossUl:mean -nan
attr source rlcCellPacketLossUl
attr title "rlc Cell Packet Loss, mean"
attr unit ""
scalar Highway.car[1].lteNic.rlc.um rlcCellPacketLossDl:mean -nan
attr source rlcCellPacketLossDl
attr title "rlc Cell Packet Loss, mean"
attr unit ""
scalar Highway.car[1].lteNic.rlc.um rlcCellThroughputD2D:mean -nan
attr source rlcCellThroughputD2D
attr title "Cell Throughput at the rlc layer D2D, mean"
attr unit Bps
scalar Highway.car[1].lteNic.rlc.um rlcCellThroughputDl:mean -nan
attr source rlcCellThroughputDl
attr title "Cell Throughput at the rlc layer DL, mean"
attr unit Bps
scalar Highway.car[1].lteNic.rlc.um rlcCellThroughputUl:mean -nan
attr source rlcCellThroughputUl
attr title "Cell Throughput at the rlc layer UL, mean"
attr unit Bps
scalar Highway.car[1].lteNic.rlc.um rlcPduThroughputD2D:mean -nan
attr source rlcPduThroughputD2D
attr title "Throughput at the rlc layer D2D, mean"
attr unit Bps
scalar Highway.car[1].lteNic.rlc.um rlcPduDelayD2D:mean -nan
attr source rlcPduDelayD2D
attr title "Delay at the rlc layer D2D, mean"
attr unit s
scalar Highway.car[1].lteNic.rlc.um rlcPduThroughputUl:mean 4415.7787247856
attr source rlcPduThroughputUl
attr title "Throughput at the rlc layer UL, mean"
attr unit Bps
scalar Highway.car[1].lteNic.rlc.um rlcPduDelayUl:mean 0.004
attr source rlcPduDelayUl
attr title "Delay at the rlc layer UL, mean"
attr unit s
scalar Highway.car[1].lteNic.rlc.um rlcPduThroughputDl:mean 60057.309757606
attr source rlcPduThroughputDl
attr title "Throughput at the rlc layer DL, mean"
attr unit Bps
scalar Highway.car[1].lteNic.rlc.um rlcPduDelayDl:mean 0.0039999999999999
attr source rlcPduDelayDl
attr title "Delay at the rlc layer UL, mean"
attr unit s
scalar Highway.car[1].lteNic.rlc.um rlcThroughputD2D:mean -nan
attr source rlcThroughputD2D
attr title "Throughput at the rlc layer D2D, mean"
attr unit Bps
scalar Highway.car[1].lteNic.rlc.um rlcDelayD2D:mean -nan
attr source rlcDelayD2D
attr title "Delay at the rlc layer D2D, mean"
attr unit s
scalar Highway.car[1].lteNic.rlc.um rlcThroughputUl:mean 4415.9284749101
attr source rlcThroughputUl
attr title "Throughput at the rlc layer UL, mean"
attr unit Bps
scalar Highway.car[1].lteNic.rlc.um rlcDelayUl:mean 0.0096260726072608
attr source rlcDelayUl
attr title "Delay at the rlc layer UL, mean"
attr unit s
scalar Highway.car[1].lteNic.rlc.um rlcThroughputDl:mean 60199.04221348
attr source rlcThroughputDl
attr title "Throughput at the rlc layer DL, mean"
attr unit Bps
scalar Highway.car[1].lteNic.rlc.um rlcDelayDl:mean 0.005557949199342
attr source rlcDelayDl
attr title "Delay at the rlc layer UL, mean"
attr unit s
scalar Highway.car[1].lteNic.rlc.am rlcPduPacketLossD2D:mean -nan
attr source rlcPduPacketLossD2D
attr title "rlc Packet Loss, mean"
attr unit ""
scalar Highway.car[1].lteNic.rlc.am rlcPduPacketLossDl:mean -nan
attr source rlcPduPacketLossDl
attr title "rlc Packet Loss, mean"
attr unit ""
scalar Highway.car[1].lteNic.rlc.am rlcPduPacketLossUl:mean -nan
attr source rlcPduPacketLossUl
attr title "rlc Packet Loss, mean"
attr unit ""
scalar Highway.car[1].lteNic.rlc.am rlcPacketLossTotal:mean -nan
attr source rlcPacketLossTotal
attr title "rlc Packet Loss, mean"
attr unit ""
scalar Highway.car[1].lteNic.rlc.am rlcPacketLossD2D:mean -nan
attr source rlcPacketLossD2D
attr title "rlc Packet Loss, mean"
attr unit ""
scalar Highway.car[1].lteNic.rlc.am rlcPacketLossDl:mean -nan
attr source rlcPacketLossDl
attr title "rlc Packet Loss, mean"
attr unit ""
scalar Highway.car[1].lteNic.rlc.am rlcPacketLossUl:mean -nan
attr source rlcPacketLossUl
attr title "rlc Packet Loss, mean"
attr unit ""
scalar Highway.car[1].lteNic.rlc.am rlcCellPacketLossD2D:mean -nan
attr source rlcCellPacketLossD2D
attr title "rlc Cell Packet Loss, mean"
attr unit ""
scalar Highway.car[1].lteNic.rlc.am rlcCellPacketLossUl:mean -nan
attr source rlcCellPacketLossUl
attr title "rlc Cell Packet Loss, mean"
attr unit ""
scalar Highway.car[1].lteNic.rlc.am rlcCellPacketLossDl:mean -nan
attr source rlcCellPacketLossDl
attr title "rlc Cell Packet Loss, mean"
attr unit ""
scalar Highway.car[1].lteNic.rlc.am rlcCellThroughputD2D:mean -nan
attr source rlcCellThroughputD2D
attr title "Cell Throughput at the rlc layer D2D, mean"
attr unit Bps
scalar Highway.car[1].lteNic.rlc.am rlcCellThroughputDl:mean -nan
attr source rlcCellThroughputDl
attr title "Cell Throughput at the rlc layer DL, mean"
attr unit Bps
scalar Highway.car[1].lteNic.rlc.am rlcCellThroughputUl:mean -nan
attr source rlcCellThroughputUl
attr title "Cell Throughput at the rlc layer UL, mean"
attr unit Bps
scalar Highway.car[1].lteNic.rlc.am rlcPduThroughputD2D:mean -nan
attr source rlcPduThroughputD2D
attr title "Throughput at the rlc layer D2D, mean"
attr unit Bps
scalar Highway.car[1].lteNic.rlc.am rlcPduDelayD2D:mean -nan
attr source rlcPduDelayD2D
attr title "Delay at the rlc layer D2D, mean"
attr unit s
scalar Highway.car[1].lteNic.rlc.am rlcPduThroughputUl:mean -nan
attr source rlcPduThroughputUl
attr title "Throughput at the rlc layer UL, mean"
attr unit Bps
scalar Highway.car[1].lteNic.rlc.am rlcPduDelayUl:mean -nan
attr source rlcPduDelayUl
attr title "Delay at the rlc layer UL, mean"
attr unit s
scalar Highway.car[1].lteNic.rlc.am rlcPduThroughputDl:mean -nan
attr source rlcPduThroughputDl
attr title "Throughput at the rlc layer DL, mean"
attr unit Bps
scalar Highway.car[1].lteNic.rlc.am rlcPduDelayDl:mean -nan
attr source rlcPduDelayDl
attr title "Delay at the rlc layer UL, mean"
attr unit s
scalar Highway.car[1].lteNic.rlc.am rlcThroughputD2D:mean -nan
attr source rlcThroughputD2D
attr title "Throughput at the rlc layer D2D, mean"
attr unit Bps
scalar Highway.car[1].lteNic.rlc.am rlcDelayD2D:mean -nan
attr source rlcDelayD2D
attr title "Delay at the rlc layer D2D, mean"
attr unit s
scalar Highway.car[1].lteNic.rlc.am rlcThroughputUl:mean -nan
attr source rlcThroughputUl
attr title "Throughput at the rlc layer UL, mean"
attr unit Bps
scalar Highway.car[1].lteNic.rlc.am rlcDelayUl:mean -nan
attr source rlcDelayUl
attr title "Delay at the rlc layer UL, mean"
attr unit s
scalar Highway.car[1].lteNic.rlc.am rlcThroughputDl:mean -nan
attr source rlcThroughputDl
attr title "Throughput at the rlc layer DL, mean"
attr unit Bps
scalar Highway.car[1].lteNic.rlc.am rlcDelayDl:mean -nan
attr source rlcDelayDl
attr title "Delay at the rlc layer UL, mean"
attr unit s
scalar Highway.car[1].lteNic.mac cqiDlMuMimo4:mean 14.99114331723
attr source cqiDlMuMimo4
attr title "Average cqi MuMimo band 4, mean"
attr unit cqi
scalar Highway.car[1].lteNic.mac cqiDlMuMimo3:mean 14.884057971014
attr source cqiDlMuMimo3
attr title "Average cqi MuMimo band 3, mean"
attr unit cqi
scalar Highway.car[1].lteNic.mac cqiDlMuMimo2:mean 14.99154589372
attr source cqiDlMuMimo2
attr title "Average cqi MuMimo band 2, mean"
attr unit cqi
scalar Highway.car[1].lteNic.mac cqiDlMuMimo1:mean 14.989935587762
attr source cqiDlMuMimo1
attr title "Average cqi MuMimo band 1, mean"
attr unit cqi
scalar Highway.car[1].lteNic.mac cqiDlMuMimo0:mean 14.993558776167
attr source cqiDlMuMimo0
attr title "Average cqi MuMimo band 0, mean"
attr unit cqi
scalar Highway.car[1].lteNic.mac cqiDlTxDiv4:mean 14.99959742351
attr source cqiDlTxDiv4
attr title "Average cqi TxDiv band 4, mean"
attr unit cqi
scalar Highway.car[1].lteNic.mac cqiDlTxDiv3:mean 15
attr source cqiDlTxDiv3
attr title "Average cqi TxDiv band 3, mean"
attr unit cqi
scalar Highway.car[1].lteNic.mac cqiDlTxDiv2:mean 14.999194847021
attr source cqiDlTxDiv2
attr title "Average cqi TxDiv band 2, mean"
attr unit cqi
scalar Highway.car[1].lteNic.mac cqiDlTxDiv1:mean 14.994766505636
attr source cqiDlTxDiv1
attr title "Average cqi TxDiv band 1, mean"
attr unit cqi
scalar Highway.car[1].lteNic.mac cqiDlTxDiv0:mean 15
attr source cqiDlTxDiv0
attr title "Average cqi TxDiv band 0, mean"
attr unit cqi
scalar Highway.car[1].lteNic.mac cqiDlSpmux4:mean 14.985104669887
attr source cqiDlSpmux4
attr title "Average cqi Spmux band 4, mean"
attr unit cqi
scalar Highway.car[1].lteNic.mac cqiDlSpmux3:mean 14.535426731079
attr source cqiDlSpmux3
attr title "Average cqi Spmux band 3, mean"
attr unit cqi
scalar Highway.car[1].lteNic.mac cqiDlSpmux2:mean 14.986714975845
attr source cqiDlSpmux2
attr title "Average cqi Spmux band 2, mean"
attr unit cqi
scalar Highway.car[1].lteNic.mac cqiDlSpmux1:mean 14.983494363929
attr source cqiDlSpmux1
attr title "Average cqi Spmux band 1, mean"
attr unit cqi
scalar Highway.car[1].lteNic.mac cqiDlSpmux0:mean 14.988727858293
attr source cqiDlSpmux0
attr title "Average cqi Spmux band 0, mean"
attr unit cqi
scalar Highway.car[1].lteNic.mac cqiDlSiso4:mean 14.99114331723
attr source cqiDlSiso4
attr title "Average cqi siso band 4, mean"
attr unit cqi
scalar Highway.car[1].lteNic.mac cqiDlSiso3:mean 14.884057971014
attr source cqiDlSiso3
attr title "Average cqi siso band 3, mean"
attr unit cqi
scalar Highway.car[1].lteNic.mac cqiDlSiso2:mean 14.99154589372
attr source cqiDlSiso2
attr title "Average cqi siso band 2, mean"
attr unit cqi
scalar Highway.car[1].lteNic.mac cqiDlSiso1:mean 14.989935587762
attr source cqiDlSiso1
attr title "Average cqi siso band 1, mean"
attr unit cqi
scalar Highway.car[1].lteNic.mac cqiDlSiso0:mean 14.993558776167
attr source cqiDlSiso0
attr title "Average cqi siso band 0, mean"
attr unit cqi
scalar Highway.car[1].lteNic.mac measuredItbs:mean -nan
attr source measuredItbs
attr title "TBS index, mean"
attr unit ""
scalar Highway.car[1].lteNic.mac harqErrorRate_4th_D2D:mean -nan
attr source harqErrorRate_4th_D2D
attr title "Harq Error Rate D2D, mean"
attr unit ""
scalar Highway.car[1].lteNic.mac harqErrorRate_4th_Dl:mean -nan
attr source harqErrorRate_4th_Dl
attr title "Harq Error Rate Dl, mean"
attr unit ""
scalar Highway.car[1].lteNic.mac harqErrorRate_4th_Ul:mean -nan
attr source harqErrorRate_4th_Ul
attr title "Harq Error Rate Dl, mean"
attr unit ""
scalar Highway.car[1].lteNic.mac harqErrorRate_3rd_D2D:mean -nan
attr source harqErrorRate_3rd_D2D
attr title "Harq Error Rate D2D, mean"
attr unit ""
scalar Highway.car[1].lteNic.mac harqErrorRate_3rd_Dl:mean -nan
attr source harqErrorRate_3rd_Dl
attr title "Harq Error Rate Dl, mean"
attr unit ""
scalar Highway.car[1].lteNic.mac harqErrorRate_3rd_Ul:mean -nan
attr source harqErrorRate_3rd_Ul
attr title "Harq Error Rate Dl, mean"
attr unit ""
scalar Highway.car[1].lteNic.mac harqErrorRate_2nd_D2D:mean -nan
attr source harqErrorRate_2nd_D2D
attr title "Harq Error Rate D2D, mean"
attr unit ""
scalar Highway.car[1].lteNic.mac harqErrorRate_2nd_Dl:mean -nan
attr source harqErrorRate_2nd_Dl
attr title "Harq Error Rate Dl, mean"
attr unit ""
scalar Highway.car[1].lteNic.mac harqErrorRate_2nd_Ul:mean -nan
attr source harqErrorRate_2nd_Ul
attr title "Harq Error Rate Dl, mean"
attr unit ""
scalar Highway.car[1].lteNic.mac harqErrorRate_1st_D2D:mean -nan
attr source harqErrorRate_1st_D2D
attr title "Harq Error Rate D2D, mean"
attr unit ""
scalar Highway.car[1].lteNic.mac harqErrorRate_1st_Dl:mean 0
attr source harqErrorRate_1st_Dl
attr title "Harq Error Rate Dl, mean"
attr unit ""
scalar Highway.car[1].lteNic.mac harqErrorRate_1st_Ul:mean 0
attr source harqErrorRate_1st_Ul
attr title "Harq Error Rate Dl, mean"
attr unit ""
scalar Highway.car[1].lteNic.mac harqErrorRateD2D:mean -nan
attr source harqErrorRateD2D
attr title "Harq Error Rate D2D, mean"
attr unit ""
scalar Highway.car[1].lteNic.mac harqErrorRateDl:mean 0
attr source harqErrorRateDl
attr title "Harq Error Rate Dl, mean"
attr unit ""
scalar Highway.car[1].lteNic.mac harqErrorRateUl:mean 0
attr source harqErrorRateUl
attr title "Harq Error Rate Dl, mean"
attr unit ""
scalar Highway.car[1].lteNic.mac macBufferOverFlowD2D:mean -nan
attr source macBufferOverFlowD2D
attr title "Mac buffer overflow as function of time, mean"
attr unit Byte/s
scalar Highway.car[1].lteNic.mac macBufferOverFlowUl:mean -nan
attr source macBufferOverFlowUl
attr title "Mac buffer overflow as function of time, mean"
attr unit Byte/s
scalar Highway.car[1].lteNic.mac macBufferOverFlowDl:mean -nan
attr source macBufferOverFlowDl
attr title "Mac buffer overflow as function of time, mean"
attr unit Byte/s
scalar Highway.car[1].lteNic.mac macPacketLossD2D:mean -nan
attr source macPacketLossD2D
attr title "Mac Packet Loss D2D, mean"
attr unit ""
scalar Highway.car[1].lteNic.mac macPacketLossDl:mean 0
attr source macPacketLossDl
attr title "Mac Packet Loss, mean"
attr unit ""
scalar Highway.car[1].lteNic.mac macPacketLossUl:mean 0
attr source macPacketLossUl
attr title "Mac Packet Loss, mean"
attr unit ""
scalar Highway.car[1].lteNic.mac macCellPacketLossD2D:mean -nan
attr source macCellPacketLossD2D
attr title "Mac Cell Packet Loss D2D, mean"
attr unit ""
scalar Highway.car[1].lteNic.mac macCellPacketLossUl:mean -nan
attr source macCellPacketLossUl
attr title "Mac Cell Packet Loss, mean"
attr unit ""
scalar Highway.car[1].lteNic.mac macCellPacketLossDl:mean -nan
attr source macCellPacketLossDl
attr title "Mac Cell Packet Loss, mean"
attr unit ""
scalar Highway.car[1].lteNic.mac macCellThroughputD2D:mean -nan
attr source macCellThroughputD2D
attr title "Cell Throughput at the MAC layer D2D, mean"
attr unit Bps
scalar Highway.car[1].lteNic.mac macCellThroughputDl:mean -nan
attr source macCellThroughputDl
attr title "Cell Throughput at the MAC layer DL, mean"
attr unit Bps
scalar Highway.car[1].lteNic.mac macCellThroughputUl:mean -nan
attr source macCellThroughputUl
attr title "Cell Throughput at the MAC layer UL, mean"
attr unit Bps
scalar Highway.car[1].lteNic.mac macThroughputD2D:mean -nan
attr source macThroughputD2D
attr title "Throughput at the MAC layer D2D, mean"
attr unit Bps
scalar Highway.car[1].lteNic.mac macDelayD2D:mean -nan
attr source macDelayD2D
attr title "Delay at the MAC layer D2D, mean"
attr unit s
scalar Highway.car[1].lteNic.mac macThroughputUl:mean 4476.7855609066
attr source macThroughputUl
attr title "Throughput at the MAC layer UL, mean"
attr unit Bps
scalar Highway.car[1].lteNic.mac macDelayUl:mean 0.004
attr source macDelayUl
attr title "Delay at the MAC layer UL, mean"
attr unit s
scalar Highway.car[1].lteNic.mac macThroughputDl:mean 60146.096337526
attr source macThroughputDl
attr title "Throughput at the MAC layer DL, mean"
attr unit Bps
scalar Highway.car[1].lteNic.mac macDelayDl:mean -nan
attr source macDelayDl
attr title "Delay at the MAC layer UL, mean"
attr unit s
scalar Highway.car[1].lteNic.mac sentPacketToLowerLayer:count 2768
attr interpolationmode none
attr source sentPacketToLowerLayer
scalar Highway.car[1].lteNic.mac sentPacketToLowerLayer:sum(packetBytes) 130652
attr interpolationmode none
attr source sentPacketToLowerLayer
scalar Highway.car[1].lteNic.mac sentPacketToUpperLayer:count 2165
attr interpolationmode none
attr source sentPacketToUpperLayer
scalar Highway.car[1].lteNic.mac sentPacketToUpperLayer:sum(packetBytes) 1746997
attr interpolationmode none
attr source sentPacketToUpperLayer
scalar Highway.car[1].lteNic.mac receivedPacketFromLowerLayer:count 3732
attr interpolationmode none
attr source receivedPacketFromLowerLayer
scalar Highway.car[1].lteNic.mac receivedPacketFromLowerLayer:sum(packetBytes) 1751867
attr interpolationmode none
attr source receivedPacketFromLowerLayer
scalar Highway.car[1].lteNic.mac receivedPacketFromUpperLayer:count 3928
attr interpolationmode none
attr source receivedPacketFromUpperLayer
scalar Highway.car[1].lteNic.mac receivedPacketFromUpperLayer:sum(packetBytes) 256120
attr interpolationmode none
attr source receivedPacketFromUpperLayer
scalar Highway.car[1].lteNic.phy averageCqiUl:mean 13.925675675676
attr source averageCqiUl
attr title "Average Cqi reported in UL, mean"
attr unit cqi
scalar Highway.car[1].lteNic.phy averageCqiDl:mean 14.980453479281
attr source averageCqiDl
attr title "Average Cqi reported in DL, mean"
attr unit cqi
scalar Highway.car[1].networkLayer.arp failedARPResolution:count 0
attr title "ARP failed resolutions, count"
scalar Highway.car[1].networkLayer.arp completedARPResolution:count 0
attr title "ARP completed resolutions, count"
scalar Highway.car[1].networkLayer.arp initiatedARPResolution:count 0
attr title "ARP initiated resolutions, count"
scalar Highway.car[1].networkLayer.arp sentReply:count 0
attr title "ARP replies sent, count"
scalar Highway.car[1].networkLayer.arp sentReq:count 0
attr title "ARP request sent, count"
scalar Highway.car[2].tcpApp[0] numActiveSessions:max 1
attr interpolationmode sample-hold
attr source sum(connect)
attr title "number of active sessions, max"
scalar Highway.car[2].tcpApp[0] numActiveSessions:timeavg 1
attr interpolationmode sample-hold
attr source sum(connect)
attr title "number of active sessions, timeavg"
scalar Highway.car[2].tcpApp[0] numSessions:last 1
attr source sum(connect+1)/2
attr title "total number of sessions, last"
scalar Highway.car[2].tcpApp[0] rcvdPk:count 8
attr interpolationmode none
attr source rcvdPk
attr title "packets received, count"
scalar Highway.car[2].tcpApp[0] rcvdPk:sum(packetBytes) 837000
attr interpolationmode none
attr source rcvdPk
attr title "packets received, sum(packetBytes)"
statistic Highway.car[2].tcpApp[0] endToEndDelay:histogram
field count 8
field mean 0.389875
field stddev 0.10682621066814
field min 0.313
field max 0.579
field sum 3.119
field sqrsum 1.295903
attr interpolationmode none
attr source messageAge(rcvdPk)
attr title "end-to-end delay, histogram"
attr unit s
bin	-inf	0
bin	0.245	0
bin	0.25	0
bin	0.255	0
bin	0.26	0
bin	0.265	0
bin	0.27	0
bin	0.275	0
bin	0.28	0
bin	0.285	0
bin	0.29	0
bin	0.295	0
bin	0.3	0
bin	0.305	0
bin	0.31	1
bin	0.315	1
bin	0.32	1
bin	0.325	0
bin	0.33	0
bin	0.335	2
bin	0.34	0
bin	0.345	0
bin	0.35	0
bin	0.355	0
bin	0.36	0
bin	0.365	0
bin	0.37	0
bin	0.375	1
bin	0.38	0
bin	0.385	0
bin	0.39	0
bin	0.395	0
bin	0.4	0
bin	0.405	0
bin	0.41	0
bin	0.415	0
bin	0.42	0
bin	0.425	0
bin	0.43	0
bin	0.435	0
bin	0.44	0
bin	0.445	0
bin	0.45	0
bin	0.455	0
bin	0.46	0
bin	0.465	0
bin	0.47	0
bin	0.475	0
bin	0.48	0
bin	0.485	0
bin	0.49	0
bin	0.495	0
bin	0.5	0
bin	0.505	0
bin	0.51	0
bin	0.515	0
bin	0.52	0
bin	0.525	0
bin	0.53	0
bin	0.535	1
bin	0.54	0
bin	0.545	0
bin	0.55	0
bin	0.555	0
bin	0.56	0
bin	0.565	0
bin	0.57	0
bin	0.575	1
bin	0.58	0
bin	0.585	0
bin	0.59	0
bin	0.595	0
bin	0.6	0
bin	0.605	0
bin	0.61	0
bin	0.615	0
bin	0.62	0
bin	0.625	0
bin	0.63	0
bin	0.635	0
bin	0.64	0
bin	0.645	0
bin	0.65	0
scalar Highway.car[2].tcpApp[0] sentPk:count 9
attr interpolationmode none
attr source sentPk
attr title "packets sent, count"
scalar Highway.car[2].tcpApp[0] sentPk:sum(packetBytes) 1800
attr interpolationmode none
attr source sentPk
attr title "packets sent, sum(packetBytes)"
scalar Highway.car[2].lteNic.pdcpRrc sentPacketToLowerLayer:count 1877
attr interpolationmode none
attr source sentPacketToLowerLayer
scalar Highway.car[2].lteNic.pdcpRrc sentPacketToLowerLayer:sum(packetBytes) 78761
attr interpolationmode none
attr source sentPacketToLowerLayer
scalar Highway.car[2].lteNic.pdcpRrc sentPacketToUpperLayer:count 1876
attr interpolationmode none
attr source sentPacketToUpperLayer
scalar Highway.car[2].lteNic.pdcpRrc sentPacketToUpperLayer:sum(packetBytes) 1073916
attr interpolationmode none
attr source sentPacketToUpperLayer
scalar Highway.car[2].lteNic.pdcpRrc receivedPacketFromLowerLayer:count 1876
attr interpolationmode none
attr source receivedPacketFromLowerLayer
scalar Highway.car[2].lteNic.pdcpRrc receivedPacketFromLowerLayer:sum(packetBytes) 1075792
attr interpolationmode none
attr source receivedPacketFromLowerLayer
scalar Highway.car[2].lteNic.pdcpRrc receivedPacketFromUpperLayer:count 1877
attr interpolationmode none
attr source receivedPacketFromUpperLayer
scalar Highway.car[2].lteNic.pdcpRrc receivedPacketFromUpperLayer:sum(packetBytes) 76884
attr interpolationmode none
attr source receivedPacketFromUpperLayer
scalar Highway.car[2].lteNic.pdcpRrc pdcpdrop3:mean -nan
attr source pdcpdrop3
attr title "Drop at PDCP layer 3, mean"
attr unit ""
scalar Highway.car[2].lteNic.pdcpRrc pdcpdrop2:mean -nan
attr source pdcpdrop2
attr title "Drop at PDCP layer 2, mean"
attr unit ""
scalar Highway.car[2].lteNic.pdcpRrc pdcpdrop1:mean -nan
attr source pdcpdrop1
attr title "Drop at PDCP layer 1, mean"
attr unit ""
scalar Highway.car[2].lteNic.pdcpRrc pdcpdrop0:mean -nan
attr source pdcpdrop0
attr title "Drop at PDCP layer 0, mean"
attr unit ""
scalar Highway.car[2].lteNic.rlc.um rlcPduPacketLossD2D:mean -nan
attr source rlcPduPacketLossD2D
attr title "rlc Packet Loss, mean"
attr unit ""
scalar Highway.car[2].lteNic.rlc.um rlcPduPacketLossDl:mean 0
attr source rlcPduPacketLossDl
attr title "rlc Packet Loss, mean"
attr unit ""
scalar Highway.car[2].lteNic.rlc.um rlcPduPacketLossUl:mean 0
attr source rlcPduPacketLossUl
attr title "rlc Packet Loss, mean"
attr unit ""
scalar Highway.car[2].lteNic.rlc.um rlcPacketLossTotal:mean 0
attr source rlcPacketLossTotal
attr title "rlc Packet Loss, mean"
attr unit ""
scalar Highway.car[2].lteNic.rlc.um rlcPacketLossD2D:mean -nan
attr source rlcPacketLossD2D
attr title "rlc Packet Loss, mean"
attr unit ""
scalar Highway.car[2].lteNic.rlc.um rlcPacketLossDl:mean 0
attr source rlcPacketLossDl
attr title "rlc Packet Loss, mean"
attr unit ""
scalar Highway.car[2].lteNic.rlc.um rlcPacketLossUl:mean 0
attr source rlcPacketLossUl
attr title "rlc Packet Loss, mean"
attr unit ""
scalar Highway.car[2].lteNic.rlc.um rlcCellPacketLossD2D:mean -nan
attr source rlcCellPacketLossD2D
attr title "rlc Cell Packet Loss, mean"
attr unit ""
scalar Highway.car[2].lteNic.rlc.um rlcCellPacketLossUl:mean -nan
attr source rlcCellPacketLossUl
attr title "rlc Cell Packet Loss, mean"
attr unit ""
scalar Highway.car[2].lteNic.rlc.um rlcCellPacketLossDl:mean -nan
attr source rlcCellPacketLossDl
attr title "rlc Cell Packet Loss, mean"
attr unit ""
scalar Highway.car[2].lteNic.rlc.um rlcCellThroughputD2D:mean -nan
attr source rlcCellThroughputD2D
attr title "Cell Throughput at the rlc layer D2D, mean"
attr unit Bps
scalar Highway.car[2].lteNic.rlc.um rlcCellThroughputDl:mean -nan
attr source rlcCellThroughputDl
attr title "Cell Throughput at the rlc layer DL, mean"
attr unit Bps
scalar Highway.car[2].lteNic.rlc.um rlcCellThroughputUl:mean -nan
attr source rlcCellThroughputUl
attr title "Cell Throughput at the rlc layer UL, mean"
attr unit Bps
scalar Highway.car[2].lteNic.rlc.um rlcPduThroughputD2D:mean -nan
attr source rlcPduThroughputD2D
attr title "Throughput at the rlc layer D2D, mean"
attr unit Bps
scalar Highway.car[2].lteNic.rlc.um rlcPduDelayD2D:mean -nan
attr source rlcPduDelayD2D
attr title "Delay at the rlc layer D2D, mean"
attr unit s
scalar Highway.car[2].lteNic.rlc.um rlcPduThroughputUl:mean 2304.9808241046
attr source rlcPduThroughputUl
attr title "Throughput at the rlc layer UL, mean"
attr unit Bps
scalar Highway.car[2].lteNic.rlc.um rlcPduDelayUl:mean 0.004
attr source rlcPduDelayUl
attr title "Delay at the rlc layer UL, mean"
attr unit s
scalar Highway.car[2].lteNic.rlc.um rlcPduThroughputDl:mean 31645.662362549
attr source rlcPduThroughputDl
attr title "Throughput at the rlc layer DL, mean"
attr unit Bps
scalar Highway.car[2].lteNic.rlc.um rlcPduDelayDl:mean 0.004
attr source rlcPduDelayDl
attr title "Delay at the rlc layer UL, mean"
attr unit s
scalar Highway.car[2].lteNic.rlc.um rlcThroughputD2D:mean -nan
attr source rlcThroughputD2D
attr title "Throughput at the rlc layer D2D, mean"
attr unit Bps
scalar Highway.car[2].lteNic.rlc.um rlcDelayD2D:mean -nan
attr source rlcDelayD2D
attr title "Delay at the rlc layer D2D, mean"
attr unit s
scalar Highway.car[2].lteNic.rlc.um rlcThroughputUl:mean 2343.1670793599
attr source rlcThroughputUl
attr title "Throughput at the rlc layer UL, mean"
attr unit Bps
scalar Highway.car[2].lteNic.rlc.um rlcDelayUl:mean 0.012095773140717
attr source rlcDelayUl
attr title "Delay at the rlc layer UL, mean"
attr unit s
scalar Highway.car[2].lteNic.rlc.um rlcThroughputDl:mean 31801.437573522
attr source rlcThroughputDl
attr title "Throughput at the rlc layer DL, mean"
attr unit Bps
scalar Highway.car[2].lteNic.rlc.um rlcDelayDl:mean 0.0059082925701493
attr source rlcDelayDl
attr title "Delay at the rlc layer UL, mean"
attr unit s
scalar Highway.car[2].lteNic.rlc.am rlcPduPacketLossD2D:mean -nan
attr source rlcPduPacketLossD2D
attr title "rlc Packet Loss, mean"
attr unit ""
scalar Highway.car[2].lteNic.rlc.am rlcPduPacketLossDl:mean -nan
attr source rlcPduPacketLossDl
attr title "rlc Packet Loss, mean"
attr unit ""
scalar Highway.car[2].lteNic.rlc.am rlcPduPacketLossUl:mean -nan
attr source rlcPduPacketLossUl
attr title "rlc Packet Loss, mean"
attr unit ""
scalar Highway.car[2].lteNic.rlc.am rlcPacketLossTotal:mean -nan
attr source rlcPacketLossTotal
attr title "rlc Packet Loss, mean"
attr unit ""
scalar Highway.car[2].lteNic.rlc.am rlcPacketLossD2D:mean -nan
attr source rlcPacketLossD2D
attr title "rlc Packet Loss, mean"
attr unit ""
scalar Highway.car[2].lteNic.rlc.am rlcPacketLossDl:mean -nan
attr source rlcPacketLossDl
attr title "rlc Packet Loss, mean"
attr unit ""
scalar Highway.car[2].lteNic.rlc.am rlcPacketLossUl:mean -nan
attr source rlcPacketLossUl
attr title "rlc Packet Loss, mean"
attr unit ""
scalar Highway.car[2].lteNic.rlc.am rlcCellPacketLossD2D:mean -nan
attr source rlcCellPacketLossD2D
attr title "rlc Cell Packet Loss, mean"
attr unit ""
scalar Highway.car[2].lteNic.rlc.am rlcCellPacketLossUl:mean -nan
attr source rlcCellPacketLossUl
attr title "rlc Cell Packet Loss, mean"
attr unit ""
scalar Highway.car[2].lteNic.rlc.am rlcCellPacketLossDl:mean -nan
attr source rlcCellPacketLossDl
attr title "rlc Cell Packet Loss, mean"
attr unit ""
scalar Highway.car[2].lteNic.rlc.am rlcCellThroughputD2D:mean -nan
attr source rlcCellThroughputD2D
attr title "Cell Throughput at the rlc layer D2D, mean"
attr unit Bps
scalar Highway.car[2].lteNic.rlc.am rlcCellThroughputDl:mean -nan
attr source rlcCellThroughputDl
attr title "Cell Throughput at the rlc layer DL, mean"
attr unit Bps
scalar Highway.car[2].lteNic.rlc.am rlcCellThroughputUl:mean -nan
attr source rlcCellThroughputUl
attr title "Cell Throughput at the rlc layer UL, mean"
attr unit Bps
scalar Highway.car[2].lteNic.rlc.am rlcPduThroughputD2D:mean -nan
attr source rlcPduThroughputD2D
attr title "Throughput at the rlc layer D2D, mean"
attr unit Bps
scalar Highway.car[2].lteNic.rlc.am rlcPduDelayD2D:mean -nan
attr source rlcPduDelayD2D
attr title "Delay at the rlc layer D2D, mean"
attr unit s
scalar Highway.car[2].lteNic.rlc.am rlcPduThroughputUl:mean -nan
attr source rlcPduThroughputUl
attr title "Throughput at the rlc layer UL, mean"
attr unit Bps
scalar Highway.car[2].lteNic.rlc.am rlcPduDelayUl:mean -nan
attr source rlcPduDelayUl
attr title "Delay at the rlc layer UL, mean"
attr unit s
scalar Highway.car[2].lteNic.rlc.am rlcPduThroughputDl:mean -nan
attr source rlcPduThroughputDl
attr title "Throughput at the rlc layer DL, mean"
attr unit Bps
scalar Highway.car[2].lteNic.rlc.am rlcPduDelayDl:mean -nan
attr source rlcPduDelayDl
attr title "Delay at the rlc layer UL, mean"
attr unit s
scalar Highway.car[2].lteNic.rlc.am rlcThroughputD2D:mean -nan
attr source rlcThroughputD2D
attr title "Throughput at the rlc layer D2D, mean"
attr unit Bps
scalar Highway.car[2].lteNic.rlc.am rlcDelayD2D:mean -nan
attr source rlcDelayD2D
attr title "Delay at the rlc layer D2D, mean"
attr unit s
scalar Highway.car[2].lteNic.rlc.am rlcThroughputUl:mean -nan
attr source rlcThroughputUl
attr title "Throughput at the rlc layer UL, mean"
attr unit Bps
scalar Highway.car[2].lteNic.rlc.am rlcDelayUl:mean -nan
attr source rlcDelayUl
attr title "Delay at the rlc layer UL, mean"
attr unit s
scalar Highway.car[2].lteNic.rlc.am rlcThroughputDl:mean -nan
attr source rlcThroughputDl
attr title "Throughput at the rlc layer DL, mean"
attr unit Bps
scalar Highway.car[2].lteNic.rlc.am rlcDelayDl:mean -nan
attr source rlcDelayDl
attr title "Delay at the rlc layer UL, mean"
attr unit s
scalar Highway.car[2].lteNic.mac cqiDlMuMimo4:mean 14.992727272727
attr source cqiDlMuMimo4
attr title "Average cqi MuMimo band 4, mean"
attr unit cqi
scalar Highway.car[2].lteNic.mac cqiDlMuMimo3:mean 14.987272727273
attr source cqiDlMuMimo3
attr title "Average cqi MuMimo band 3, mean"
attr unit cqi
scalar Highway.car[2].lteNic.mac cqiDlMuMimo2:mean 14.995757575758
attr source cqiDlMuMimo2
attr title "Average cqi MuMimo band 2, mean"
attr unit cqi
scalar Highway.car[2].lteNic.mac cqiDlMuMimo1:mean 14.994545454545
attr source cqiDlMuMimo1
attr title "Average cqi MuMimo band 1, mean"
attr unit cqi
scalar Highway.car[2].lteNic.mac cqiDlMuMimo0:mean 14.992727272727
attr source cqiDlMuMimo0
attr title "Average cqi MuMimo band 0, mean"
attr unit cqi
scalar Highway.car[2].lteNic.mac cqiDlTxDiv4:mean 15
attr source cqiDlTxDiv4
attr title "Average cqi TxDiv band 4, mean"
attr unit cqi
scalar Highway.car[2].lteNic.mac cqiDlTxDiv3:mean 15
attr source cqiDlTxDiv3
attr title "Average cqi TxDiv band 3, mean"
attr unit cqi
scalar Highway.car[2].lteNic.mac cqiDlTxDiv2:mean 15
attr source cqiDlTxDiv2
attr title "Average cqi TxDiv band 2, mean"
attr unit cqi
scalar Highway.car[2].lteNic.mac cqiDlTxDiv1:mean 15
attr source cqiDlTxDiv1
attr title "Average cqi TxDiv band 1, mean"
attr unit cqi
scalar Highway.car[2].lteNic.mac cqiDlTxDiv0:mean 15
attr source cqiDlTxDiv0
attr title "Average cqi TxDiv band 0, mean"
attr unit cqi
scalar Highway.car[2].lteNic.mac cqiDlSpmux4:mean 14.984242424242
attr source cqiDlSpmux4
attr title "Average cqi Spmux band 4, mean"
attr unit cqi
scalar Highway.car[2].lteNic.mac cqiDlSpmux3:mean 14.981818181818
attr source cqiDlSpmux3
attr title "Average cqi Spmux band 3, mean"
attr unit cqi
scalar Highway.car[2].lteNic.mac cqiDlSpmux2:mean 14.989090909091
attr source cqiDlSpmux2
attr title "Average cqi Spmux band 2, mean"
attr unit cqi
scalar Highway.car[2].lteNic.mac cqiDlSpmux1:mean 14.992121212121
attr source cqiDlSpmux1
attr title "Average cqi Spmux band 1, mean"
attr unit cqi
scalar Highway.car[2].lteNic.mac cqiDlSpmux0:mean 14.987272727273
attr source cqiDlSpmux0
attr title "Average cqi Spmux band 0, mean"
attr unit cqi
scalar Highway.car[2].lteNic.mac cqiDlSiso4:mean 14.992727272727
attr source cqiDlSiso4
attr title "Average cqi siso band 4, mean"
attr unit cqi
scalar Highway.car[2].lteNic.mac cqiDlSiso3:mean 14.987272727273
attr source cqiDlSiso3
attr title "Average cqi siso band 3, mean"
attr unit cqi
scalar Highway.car[2].lteNic.mac cqiDlSiso2:mean 14.995757575758
attr source cqiDlSiso2
attr title "Average cqi siso band 2, mean"
attr unit cqi
scalar Highway.car[2].lteNic.mac cqiDlSiso1:mean 14.994545454545
attr source cqiDlSiso1
attr title "Average cqi siso band 1, mean"
attr unit cqi
scalar Highway.car[2].lteNic.mac cqiDlSiso0:mean 14.992727272727
attr source cqiDlSiso0
attr title "Average cqi siso band 0, mean"
attr unit cqi
scalar Highway.car[2].lteNic.mac measuredItbs:mean -nan
attr source measuredItbs
attr title "TBS index, mean"
attr unit ""
scalar Highway.car[2].lteNic.mac harqErrorRate_4th_D2D:mean -nan
attr source harqErrorRate_4th_D2D
attr title "Harq Error Rate D2D, mean"
attr unit ""
scalar Highway.car[2].lteNic.mac harqErrorRate_4th_Dl:mean -nan
attr source harqErrorRate_4th_Dl
attr title "Harq Error Rate Dl, mean"
attr unit ""
scalar Highway.car[2].lteNic.mac harqErrorRate_4th_Ul:mean -nan
attr source harqErrorRate_4th_Ul
attr title "Harq Error Rate Dl, mean"
attr unit ""
scalar Highway.car[2].lteNic.mac harqErrorRate_3rd_D2D:mean -nan
attr source harqErrorRate_3rd_D2D
attr title "Harq Error Rate D2D, mean"
attr unit ""
scalar Highway.car[2].lteNic.mac harqErrorRate_3rd_Dl:mean -nan
attr source harqErrorRate_3rd_Dl
attr title "Harq Error Rate Dl, mean"
attr unit ""
scalar Highway.car[2].lteNic.mac harqErrorRate_3rd_Ul:mean -nan
attr source harqErrorRate_3rd_Ul
attr title "Harq Error Rate Dl, mean"
attr unit ""
scalar Highway.car[2].lteNic.mac harqErrorRate_2nd_D2D:mean -nan
attr source harqErrorRate_2nd_D2D
attr title "Harq Error Rate D2D, mean"
attr unit ""
scalar Highway.car[2].lteNic.mac harqErrorRate_2nd_Dl:mean -nan
attr source harqErrorRate_2nd_Dl
attr title "Harq Error Rate Dl, mean"
attr unit ""
scalar Highway.car[2].lteNic.mac harqErrorRate_2nd_Ul:mean -nan
attr source harqErrorRate_2nd_Ul
attr title "Harq Error Rate Dl, mean"
attr unit ""
scalar Highway.car[2].lteNic.mac harqErrorRate_1st_D2D:mean -nan
attr source harqErrorRate_1st_D2D
attr title "Harq Error Rate D2D, mean"
attr unit ""
scalar Highway.car[2].lteNic.mac harqErrorRate_1st_Dl:mean 0
attr source harqErrorRate_1st_Dl
attr title "Harq Error Rate Dl, mean"
attr unit ""
scalar Highway.car[2].lteNic.mac harqErrorRate_1st_Ul:mean 0
attr source harqErrorRate_1st_Ul
attr title "Harq Error Rate Dl, mean"
attr unit ""
scalar Highway.car[2].lteNic.mac harqErrorRateD2D:mean -nan
attr source harqErrorRateD2D
attr title "Harq Error Rate D2D, mean"
attr unit ""
scalar Highway.car[2].lteNic.mac harqErrorRateDl:mean 0
attr source harqErrorRateDl
attr title "Harq Error Rate Dl, mean"
attr unit ""
scalar Highway.car[2].lteNic.mac harqErrorRateUl:mean 0
attr source harqErrorRateUl
attr title "Harq Error Rate Dl, mean"
attr unit ""
scalar Highway.car[2].lteNic.mac macBufferOverFlowD2D:mean -nan
attr source macBufferOverFlowD2D
attr title "Mac buffer overflow as function of time, mean"
attr unit Byte/s
scalar Highway.car[2].lteNic.mac macBufferOverFlowUl:mean -nan
attr source macBufferOverFlowUl
attr title "Mac buffer overflow as function of time, mean"
attr unit Byte/s
scalar Highway.car[2].lteNic.mac macBufferOverFlowDl:mean -nan
attr source macBufferOverFlowDl
attr title "Mac buffer overflow as function of time, mean"
attr unit Byte/s
scalar Highway.car[2].lteNic.mac macPacketLossD2D:mean -nan
attr source macPacketLossD2D
attr title "Mac Packet Loss D2D, mean"
attr unit ""
scalar Highway.car[2].lteNic.mac macPacketLossDl:mean 0
attr source macPacketLossDl
attr title "Mac Packet Loss, mean"
attr unit ""
scalar Highway.car[2].lteNic.mac macPacketLossUl:mean 0
attr source macPacketLossUl
attr title "Mac Packet Loss, mean"
attr unit ""
scalar Highway.car[2].lteNic.mac macCellPacketLossD2D:mean -nan
attr source macCellPacketLossD2D
attr title "Mac Cell Packet Loss D2D, mean"
attr unit ""
scalar Highway.car[2].lteNic.mac macCellPacketLossUl:mean -nan
attr source macCellPacketLossUl
attr title "Mac Cell Packet Loss, mean"
attr unit ""
scalar Highway.car[2].lteNic.mac macCellPacketLossDl:mean -nan
attr source macCellPacketLossDl
attr title "Mac Cell Packet Loss, mean"
attr unit ""
scalar Highway.car[2].lteNic.mac macCellThroughputD2D:mean -nan
attr source macCellThroughputD2D
attr title "Cell Throughput at the MAC layer D2D, mean"
attr unit Bps
scalar Highway.car[2].lteNic.mac macCellThroughputDl:mean -nan
attr source macCellThroughputDl
attr title "Cell Throughput at the MAC layer DL, mean"
attr unit Bps
scalar Highway.car[2].lteNic.mac macCellThroughputUl:mean -nan
attr source macCellThroughputUl
attr title "Cell Throughput at the MAC layer UL, mean"
attr unit Bps
scalar Highway.car[2].lteNic.mac macThroughputD2D:mean -nan
attr source macThroughputD2D
attr title "Throughput at the MAC layer D2D, mean"
attr unit Bps
scalar Highway.car[2].lteNic.mac macDelayD2D:mean -nan
attr source macDelayD2D
attr title "Delay at the MAC layer D2D, mean"
attr unit s
scalar Highway.car[2].lteNic.mac macThroughputUl:mean 2338.260929001
attr source macThroughputUl
attr title "Throughput at the MAC layer UL, mean"
attr unit Bps
scalar Highway.car[2].lteNic.mac macDelayUl:mean 0.004
attr source macDelayUl
attr title "Delay at the MAC layer UL, mean"
attr unit s
scalar Highway.car[2].lteNic.mac macThroughputDl:mean 31689.328655731
attr source macThroughputDl
attr title "Throughput at the MAC layer DL, mean"
attr unit Bps
scalar Highway.car[2].lteNic.mac macDelayDl:mean -nan
attr source macDelayDl
attr title "Delay at the MAC layer UL, mean"
attr unit s
scalar Highway.car[2].lteNic.mac sentPacketToLowerLayer:count 1726
attr interpolationmode none
attr source sentPacketToLowerLayer
scalar Highway.car[2].lteNic.mac sentPacketToLowerLayer:sum(packetBytes) 80935
attr interpolationmode none
attr source sentPacketToLowerLayer
scalar Highway.car[2].lteNic.mac sentPacketToUpperLayer:count 1335
attr interpolationmode none
attr source sentPacketToUpperLayer
scalar Highway.car[2].lteNic.mac sentPacketToUpperLayer:sum(packetBytes) 1077258
attr interpolationmode none
attr source sentPacketToUpperLayer
scalar Highway.car[2].lteNic.mac receivedPacketFromLowerLayer:count 2474
attr interpolationmode none
attr source receivedPacketFromLowerLayer
scalar Highway.car[2].lteNic.mac receivedPacketFromLowerLayer:sum(packetBytes) 1078724
attr interpolationmode none
attr source receivedPacketFromLowerLayer
scalar Highway.car[2].lteNic.mac receivedPacketFromUpperLayer:count 2479
attr interpolationmode none
attr source receivedPacketFromUpperLayer
scalar Highway.car[2].lteNic.mac receivedPacketFromUpperLayer:sum(packetBytes) 158492
attr interpolationmode none
attr source receivedPacketFromUpperLayer
scalar Highway.car[2].lteNic.phy averageCqiUl:mean 9.1046511627907
attr source averageCqiUl
attr title "Average Cqi reported in UL, mean"
attr unit cqi
scalar Highway.car[2].lteNic.phy averageCqiDl:mean 15
attr source averageCqiDl
attr title "Average Cqi reported in DL, mean"
attr unit cqi
scalar Highway.car[2].networkLayer.arp failedARPResolution:count 0
attr title "ARP failed resolutions, count"
scalar Highway.car[2].networkLayer.arp completedARPResolution:count 0
attr title "ARP completed resolutions, count"
scalar Highway.car[2].networkLayer.arp initiatedARPResolution:count 0
attr title "ARP initiated resolutions, count"
scalar Highway.car[2].networkLayer.arp sentReply:count 0
attr title "ARP replies sent, count"
scalar Highway.car[2].networkLayer.arp sentReq:count 0
attr title "ARP request sent, count"
scalar Highway.veinsManager roiArea 0
scalar Highway.server.networkLayer.arp failedARPResolution:count 0
attr title "ARP failed resolutions, count"
scalar Highway.server.networkLayer.arp completedARPResolution:count 0
attr title "ARP completed resolutions, count"
scalar Highway.server.networkLayer.arp initiatedARPResolution:count 0
attr title "ARP initiated resolutions, count"
scalar Highway.server.networkLayer.arp sentReply:count 0
attr title "ARP replies sent, count"
scalar Highway.server.networkLayer.arp sentReq:count 0
attr title "ARP request sent, count"
scalar Highway.server.lo0.lo droppedPkBitError:count 0
attr interpolationmode none
attr source dropPkBitError
attr title "packets dropped/bit error, count"
scalar Highway.server.lo0.lo droppedPkBitError:sum(packetBytes) 0
attr interpolationmode none
attr source dropPkBitError
attr title "packets dropped/bit error, sum(packetBytes)"
scalar Highway.server.lo0.lo rcvdPkFromHL:count 0
attr interpolationmode none
attr source packetReceivedFromUpper
attr title "packets received from higher layer, count"
scalar Highway.server.lo0.lo rcvdPkFromHL:sum(packetBytes) 0
attr interpolationmode none
attr source packetReceivedFromUpper
attr title "packets received from higher layer, sum(packetBytes)"
scalar Highway.server.lo0.lo passedUpPk:count 0
attr interpolationmode none
attr source packetSentToUpper
attr title "packets passed to higher layer, count"
scalar Highway.server.lo0.lo passedUpPk:sum(packetBytes) 0
attr interpolationmode none
attr source packetSentToUpper
attr title "packets passed to higher layer, sum(packetBytes)"
statistic Highway.server.ppp[0].queue queueingTime:histogram
field count 9298
field mean 1.0708858679285e-06
field stddev 1.1334103347265e-06
field min 0
field max 7.7216e-06
field sum 0.0099570967999996
field sqrsum 2.2606016969599e-08
attr interpolationmode none
attr title "queueing time, histogram"
bin	-inf	0
bin	0	2440
bin	1e-07	0
bin	2e-07	1
bin	3e-07	0
bin	4e-07	2009
bin	5e-07	0
bin	6e-07	0
bin	7e-07	1
bin	8e-07	1053
bin	9e-07	0
bin	1e-06	0
bin	1.1e-06	3
bin	1.2e-06	836
bin	1.3e-06	139
bin	1.4e-06	0
bin	1.5e-06	2
bin	1.6e-06	697
bin	1.7e-06	54
bin	1.8e-06	0
bin	1.9e-06	1
bin	2e-06	647
bin	2.1e-06	30
bin	2.2e-06	23
bin	2.3e-06	1
bin	2.4e-06	393
bin	2.5e-06	5
bin	2.6e-06	20
bin	2.7e-06	1
bin	2.8e-06	304
bin	2.9e-06	4
bin	3e-06	20
bin	3.1e-06	1
bin	3.2e-06	192
bin	3.3e-06	4
bin	3.4e-06	12
bin	3.5e-06	3
bin	3.6e-06	125
bin	3.7e-06	2
bin	3.8e-06	4
bin	3.9e-06	6
bin	4e-06	94
bin	4.1e-06	2
bin	4.2e-06	0
bin	4.3e-06	4
bin	4.4e-06	83
bin	4.5e-06	2
bin	4.6e-06	0
bin	4.7e-06	2
bin	4.8e-06	38
bin	4.9e-06	0
bin	5e-06	0
bin	5.1e-06	1
bin	5.2e-06	13
bin	5.3e-06	0
bin	5.4e-06	0
bin	5.5e-06	0
bin	5.6e-06	8
bin	5.7e-06	0
bin	5.8e-06	0
bin	5.9e-06	0
bin	6e-06	5
bin	6.1e-06	0
bin	6.2e-06	0
bin	6.3e-06	0
bin	6.4e-06	0
bin	6.5e-06	4
bin	6.6e-06	0
bin	6.7e-06	0
bin	6.8e-06	0
bin	6.9e-06	4
bin	7e-06	0
bin	7.1e-06	0
bin	7.2e-06	0
bin	7.3e-06	3
bin	7.4e-06	0
bin	7.5e-06	0
bin	7.6e-06	0
bin	7.7e-06	2
bin	7.8e-06	0
scalar Highway.server.ppp[0].queue dropPk:count 0
attr interpolationmode none
attr source dropPkByQueue
attr title "dropped packets, count"
scalar Highway.server.ppp[0].queue dropPk:sum(packetBytes) 0
attr interpolationmode none
attr source dropPkByQueue
attr title "dropped packets, sum(packetBytes)"
scalar Highway.server.ppp[0].queue queueLength:max 17
attr interpolationmode sample-hold
attr title "queue length, max"
scalar Highway.server.ppp[0].queue queueLength:timeavg 0.00049785484
attr interpolationmode sample-hold
attr title "queue length, timeavg"
scalar Highway.server.ppp[0].queue rcvdPk:count 9298
attr interpolationmode none
attr title "received packets, count"
scalar Highway.server.ppp[0].queue rcvdPk:sum(packetBytes) 5329004
attr interpolationmode none
attr title "received packets, sum(packetBytes)"
scalar Highway.server.ppp[0].ppp txState:timeavg 0.0002157636
attr interpolationmode sample-hold
attr title "tx state, timeavg"
scalar Highway.server.ppp[0].ppp droppedPkIfaceDown:count 0
attr interpolationmode none
attr source dropPkIfaceDown
attr title "packets dropped/interface down, count"
scalar Highway.server.ppp[0].ppp droppedPkIfaceDown:sum(packetBytes) 0
attr interpolationmode none
attr source dropPkIfaceDown
attr title "packets dropped/interface down, sum(packetBytes)"
scalar Highway.server.ppp[0].ppp droppedPkBitError:count 0
attr interpolationmode none
attr source dropPkBitError
attr title "packets dropped/bit error, count"
scalar Highway.server.ppp[0].ppp droppedPkBitError:sum(packetBytes) 0
attr interpolationmode none
attr source dropPkBitError
attr title "packets dropped/bit error, sum(packetBytes)"
scalar Highway.server.ppp[0].ppp rxPkOk:count 9273
attr interpolationmode none
attr source rxPkOk
attr title "packets received OK, count"
scalar Highway.server.ppp[0].ppp rxPkOk:sum(packetBytes) 443443
attr interpolationmode none
attr source rxPkOk
attr title "packets received OK, sum(packetBytes)"
scalar Highway.server.ppp[0].ppp txPk:count 9298
attr interpolationmode none
attr source packetSentToLower
attr title "packets transmitted, count"
scalar Highway.server.ppp[0].ppp txPk:sum(packetBytes) 5394090
attr interpolationmode none
attr source packetSentToLower
attr title "packets transmitted, sum(packetBytes)"
scalar Highway.server.ppp[0].ppp rcvdPkFromHL:count 9298
attr interpolationmode none
attr source packetReceivedFromUpper
attr title "packets received from higher layer, count"
scalar Highway.server.ppp[0].ppp rcvdPkFromHL:sum(packetBytes) 5329004
attr interpolationmode none
attr source packetReceivedFromUpper
attr title "packets received from higher layer, sum(packetBytes)"
scalar Highway.server.ppp[0].ppp passedUpPk:count 9273
attr interpolationmode none
attr source packetSentToUpper
attr title "packets passed to higher layer, count"
scalar Highway.server.ppp[0].ppp passedUpPk:sum(packetBytes) 378532
attr interpolationmode none
attr source packetSentToUpper
attr title "packets passed to higher layer, sum(packetBytes)"
scalar Highway.server.tcpApp[0] rcvdPk:count 16
attr interpolationmode none
attr source rcvdPk
attr title "packets received, count"
scalar Highway.server.tcpApp[0] rcvdPk:sum(packetBytes) 3200
attr interpolationmode none
attr source rcvdPk
attr title "packets received, sum(packetBytes)"
statistic Highway.server.tcpApp[0] endToEndDelay:histogram
field count 16
field mean 0.0151882652
field stddev 0.005344389581608
field min 0.0110007652
field max 0.0350007652
field sum 0.2430122432
field sqrsum 0.0041193718965685
attr interpolationmode none
attr source messageAge(rcvdPk)
attr title "end-to-end delay, histogram"
attr unit s
bin	-inf	0
bin	0.005	0
bin	0.0055	0
bin	0.006	0
bin	0.0065	0
bin	0.007	0
bin	0.0075	0
bin	0.008	0
bin	0.0085	0
bin	0.009	0
bin	0.0095	0
bin	0.01	0
bin	0.0105	0
bin	0.011	1
bin	0.0115	0
bin	0.012	0
bin	0.0125	0
bin	0.013	0
bin	0.0135	0
bin	0.014	13
bin	0.0145	0
bin	0.015	1
bin	0.0155	0
bin	0.016	0
bin	0.0165	0
bin	0.017	0
bin	0.0175	0
bin	0.018	0
bin	0.0185	0
bin	0.019	0
bin	0.0195	0
bin	0.02	0
bin	0.0205	0
bin	0.021	0
bin	0.0215	0
bin	0.022	0
bin	0.0225	0
bin	0.023	0
bin	0.0235	0
bin	0.024	0
bin	0.0245	0
bin	0.025	0
bin	0.0255	0
bin	0.026	0
bin	0.0265	0
bin	0.027	0
bin	0.0275	0
bin	0.028	0
bin	0.0285	0
bin	0.029	0
bin	0.0295	0
bin	0.03	0
bin	0.0305	0
bin	0.031	0
bin	0.0315	0
bin	0.032	0
bin	0.0325	0
bin	0.033	0
bin	0.0335	0
bin	0.034	0
bin	0.0345	0
bin	0.035	1
bin	0.0355	0
bin	0.036	0
bin	0.0365	0
bin	0.037	0
bin	0.0375	0
bin	0.038	0
bin	0.0385	0
bin	0.039	0
bin	0.0395	0
bin	0.04	0
bin	0.0405	0
bin	0.041	0
bin	0.0415	0
scalar Highway.server.tcpApp[0] sentPk:count 16
attr interpolationmode none
attr source sentPk
attr title "packets sent, count"
scalar Highway.server.tcpApp[0] sentPk:sum(packetBytes) 2333000
attr interpolationmode none
attr source sentPk
attr title "packets sent, sum(packetBytes)"
scalar Highway.server.tcpApp[1] rcvdPk:count 13
attr interpolationmode none
attr source rcvdPk
attr title "packets received, count"
scalar Highway.server.tcpApp[1] rcvdPk:sum(packetBytes) 2600
attr interpolationmode none
attr source rcvdPk
attr title "packets received, sum(packetBytes)"
statistic Highway.server.tcpApp[1] endToEndDelay:histogram
field count 13
field mean 0.015616168276923
field stddev 0.0058386333142945
field min 0.0130010052
field max 0.0350007652
field sum 0.2030101876
field sqrsum 0.0035793169192368
attr interpolationmode none
attr source messageAge(rcvdPk)
attr title "end-to-end delay, histogram"
attr unit s
bin	-inf	0
bin	0.0075	0
bin	0.008	0
bin	0.0085	0
bin	0.009	0
bin	0.0095	0
bin	0.01	0
bin	0.0105	0
bin	0.011	0
bin	0.0115	0
bin	0.012	0
bin	0.0125	0
bin	0.013	1
bin	0.0135	0
bin	0.014	10
bin	0.0145	0
bin	0.015	1
bin	0.0155	0
bin	0.016	0
bin	0.0165	0
bin	0.017	0
bin	0.0175	0
bin	0.018	0
bin	0.0185	0
bin	0.019	0
bin	0.0195	0
bin	0.02	0
bin	0.0205	0
bin	0.021	0
bin	0.0215	0
bin	0.022	0
bin	0.0225	0
bin	0.023	0
bin	0.0235	0
bin	0.024	0
bin	0.0245	0
bin	0.025	0
bin	0.0255	0
bin	0.026	0
bin	0.0265	0
bin	0.027	0
bin	0.0275	0
bin	0.028	0
bin	0.0285	0
bin	0.029	0
bin	0.0295	0
bin	0.03	0
bin	0.0305	0
bin	0.031	0
bin	0.0315	0
bin	0.032	0
bin	0.0325	0
bin	0.033	0
bin	0.0335	0
bin	0.034	0
bin	0.0345	0
bin	0.035	1
bin	0.0355	0
bin	0.036	0
bin	0.0365	0
bin	0.037	0
bin	0.0375	0
bin	0.038	0
bin	0.0385	0
bin	0.039	0
bin	0.0395	0
bin	0.04	0
bin	0.0405	0
bin	0.041	0
scalar Highway.server.tcpApp[1] sentPk:count 13
attr interpolationmode none
attr source sentPk
attr title "packets sent, count"
scalar Highway.server.tcpApp[1] sentPk:sum(packetBytes) 1772000
attr interpolationmode none
attr source sentPk
attr title "packets sent, sum(packetBytes)"
scalar Highway.server.tcpApp[2] rcvdPk:count 9
attr interpolationmode none
attr source rcvdPk
attr title "packets received, count"
scalar Highway.server.tcpApp[2] rcvdPk:sum(packetBytes) 1800
attr interpolationmode none
attr source rcvdPk
attr title "packets received, sum(packetBytes)"
statistic Highway.server.tcpApp[2] endToEndDelay:histogram
field count 9
field mean 0.016667518533333
field stddev 0.0069281559623611
field min 0.0130013652
field max 0.0350007652
field sum 0.1500076668
field sqrsum 0.0028842503268415
attr interpolationmode none
attr source messageAge(rcvdPk)
attr title "end-to-end delay, histogram"
attr unit s
bin	-inf	0
bin	0.0075	0
bin	0.008	0
bin	0.0085	0
bin	0.009	0
bin	0.0095	0
bin	0.01	0
bin	0.0105	0
bin	0.011	0
bin	0.0115	0
bin	0.012	0
bin	0.0125	0
bin	0.013	1
bin	0.0135	0
bin	0.014	4
bin	0.0145	0
bin	0.015	2
bin	0.0155	0
bin	0.016	1
bin	0.0165	0
bin	0.017	0
bin	0.0175	0
bin	0.018	0
bin	0.0185	0
bin	0.019	0
bin	0.0195	0
bin	0.02	0
bin	0.0205	0
bin	0.021	0
bin	0.0215	0
bin	0.022	0
bin	0.0225	0
bin	0.023	0
bin	0.0235	0
bin	0.024	0
bin	0.0245	0
bin	0.025	0
bin	0.0255	0
bin	0.026	0
bin	0.0265	0
bin	0.027	0
bin	0.0275	0
bin	0.028	0
bin	0.0285	0
bin	0.029	0
bin	0.0295	0
bin	0.03	0
bin	0.0305	0
bin	0.031	0
bin	0.0315	0
bin	0.032	0
bin	0.0325	0
bin	0.033	0
bin	0.0335	0
bin	0.034	0
bin	0.0345	0
bin	0.035	1
bin	0.0355	0
bin	0.036	0
bin	0.0365	0
bin	0.037	0
bin	0.0375	0
bin	0.038	0
bin	0.0385	0
bin	0.039	0
bin	0.0395	0
bin	0.04	0
bin	0.0405	0
bin	0.041	0
scalar Highway.server.tcpApp[2] sentPk:count 9
attr interpolationmode none
attr source sentPk
attr title "packets sent, count"
scalar Highway.server.tcpApp[2] sentPk:sum(packetBytes) 1024000
attr interpolationmode none
attr source sentPk
attr title "packets sent, sum(packetBytes)"
scalar Highway.server.tcpApp[3] rcvdPk:count 0
attr interpolationmode none
attr source rcvdPk
attr title "packets received, count"
scalar Highway.server.tcpApp[3] rcvdPk:sum(packetBytes) 0
attr interpolationmode none
attr source rcvdPk
attr title "packets received, sum(packetBytes)"
statistic Highway.server.tcpApp[3] endToEndDelay:histogram
field count 0
field mean -nan
field stddev -nan
field min -nan
field max -nan
field sum 0
field sqrsum 0
attr interpolationmode none
attr source messageAge(rcvdPk)
attr title "end-to-end delay, histogram"
attr unit s
bin	-inf	0
bin	0	0
bin	1	0
scalar Highway.server.tcpApp[3] sentPk:count 0
attr interpolationmode none
attr source sentPk
attr title "packets sent, count"
scalar Highway.server.tcpApp[3] sentPk:sum(packetBytes) 0
attr interpolationmode none
attr source sentPk
attr title "packets sent, sum(packetBytes)"
scalar Highway.server.tcpApp[4] rcvdPk:count 0
attr interpolationmode none
attr source rcvdPk
attr title "packets received, count"
scalar Highway.server.tcpApp[4] rcvdPk:sum(packetBytes) 0
attr interpolationmode none
attr source rcvdPk
attr title "packets received, sum(packetBytes)"
statistic Highway.server.tcpApp[4] endToEndDelay:histogram
field count 0
field mean -nan
field stddev -nan
field min -nan
field max -nan
field sum 0
field sqrsum 0
attr interpolationmode none
attr source messageAge(rcvdPk)
attr title "end-to-end delay, histogram"
attr unit s
bin	-inf	0
bin	0	0
bin	1	0
scalar Highway.server.tcpApp[4] sentPk:count 0
attr interpolationmode none
attr source sentPk
attr title "packets sent, count"
scalar Highway.server.tcpApp[4] sentPk:sum(packetBytes) 0
attr interpolationmode none
[...]
attr source rb_3b
attr unit ratio
scalar Highway.eNodeB2.lteNic.mac rb_2b:mean -nan
attr source rb_2b
attr unit ratio
scalar Highway.eNodeB2.lteNic.mac rb_1b:mean -nan
attr source rb_1b
attr unit ratio
scalar Highway.eNodeB2.lteNic.mac rb_3a:mean -nan
attr source rb_3a
attr unit ratio
scalar Highway.eNodeB2.lteNic.mac rb_2a:mean -nan
attr source rb_2a
attr unit ratio
scalar Highway.eNodeB2.lteNic.mac rb_1a:mean -nan
attr source rb_1a
attr unit ratio
scalar Highway.eNodeB2.lteNic.mac rb_0:mean -nan
attr source rb_0
attr unit ratio
scalar Highway.eNodeB2.lteNic.mac prf_9:mean -nan
attr source prf_9
attr unit ratio
scalar Highway.eNodeB2.lteNic.mac prf_8c:mean -nan
attr source prf_8c
attr unit ratio
scalar Highway.eNodeB2.lteNic.mac prf_7c:mean -nan
attr source prf_7c
attr unit ratio
scalar Highway.eNodeB2.lteNic.mac prf_6c:mean -nan
attr source prf_6c
attr unit ratio
scalar Highway.eNodeB2.lteNic.mac prf_8b:mean -nan
attr source prf_8b
attr unit ratio
scalar Highway.eNodeB2.lteNic.mac prf_7b:mean -nan
attr source prf_7b
attr unit ratio
scalar Highway.eNodeB2.lteNic.mac prf_6b:mean -nan
attr source prf_6b
attr unit ratio
scalar Highway.eNodeB2.lteNic.mac prf_8a:mean -nan
attr source prf_8a
attr unit ratio
scalar Highway.eNodeB2.lteNic.mac prf_7a:mean -nan
attr source prf_7a
attr unit ratio
scalar Highway.eNodeB2.lteNic.mac prf_6a:mean -nan
attr source prf_6a
attr unit ratio
scalar Highway.eNodeB2.lteNic.mac prf_5:mean -nan
attr source prf_5
attr unit ratio
scalar Highway.eNodeB2.lteNic.mac prf_4:mean -nan
attr source prf_4
attr unit ratio
scalar Highway.eNodeB2.lteNic.mac prf_3c:mean -nan
attr source prf_3c
attr unit ratio
scalar Highway.eNodeB2.lteNic.mac prf_2c:mean -nan
attr source prf_2c
attr unit ratio
scalar Highway.eNodeB2.lteNic.mac prf_1c:mean -nan
attr source prf_1c
attr unit ratio
scalar Highway.eNodeB2.lteNic.mac prf_3b:mean -nan
attr source prf_3b
attr unit ratio
scalar Highway.eNodeB2.lteNic.mac prf_2b:mean -nan
attr source prf_2b
attr unit ratio
scalar Highway.eNodeB2.lteNic.mac prf_1b:mean -nan
attr source prf_1b
attr unit ratio
scalar Highway.eNodeB2.lteNic.mac prf_3a:mean -nan
attr source prf_3a
attr unit ratio
scalar Highway.eNodeB2.lteNic.mac prf_2a:mean -nan
attr source prf_2a
attr unit ratio
scalar Highway.eNodeB2.lteNic.mac prf_1a:mean -nan
attr source prf_1a
attr unit ratio
scalar Highway.eNodeB2.lteNic.mac prf_0:mean -nan
attr source prf_0
attr unit ratio
scalar Highway.eNodeB2.lteNic.mac wastedFrames:mean -nan
attr source wastedFrames
attr title "D1 algo, ratio of activated frame with no traffic to serve, mean"
attr unit ratio
scalar Highway.eNodeB2.lteNic.mac sleepFrames:mean -nan
attr source sleepFrames
attr title "D1 algo, ratio of sleep frame, mean"
attr unit ratio
scalar Highway.eNodeB2.lteNic.mac activatedFrames:mean -nan
attr source activatedFrames
attr title "D1 algo, ratio of activated frame, mean"
attr unit ratio
scalar Highway.eNodeB2.lteNic.mac depletedPowerUl:mean 0
attr source depletedPowerUl
attr title "LTE ENodeB depleted power Ul, mean"
attr unit watts
scalar Highway.eNodeB2.lteNic.mac depletedPowerDl:mean 260
attr source depletedPowerDl
attr title "LTE ENodeB depleted power Dl, mean"
attr unit watts
scalar Highway.eNodeB2.lteNic.mac avgServedBlocksUl:mean 0
attr source avgServedBlocksUl
attr title "LTE Avg Served Blocks Ul, mean"
attr unit blocks
scalar Highway.eNodeB2.lteNic.mac avgServedBlocksDl:mean 0
attr source avgServedBlocksDl
attr title "LTE Avg Served Blocks Dl, mean"
attr unit blocks
scalar Highway.eNodeB2.lteNic.mac cellBlocksUtilizationUl:mean 0
attr source cellBlocksUtilizationUl
attr title "LTE Cell Blocks Utilization Ul, mean"
attr unit blocks
scalar Highway.eNodeB2.lteNic.mac cellBlocksUtilizationDl:mean 0
attr source cellBlocksUtilizationDl
attr title "LTE Cell Blocks Utilization Dl, mean"
attr unit blocks
scalar Highway.eNodeB2.lteNic.mac tmsMuMimo:mean -nan
attr source tmsMuMimo
attr title "how many time TMS has coiche MuMIMO respect to the other, mean"
attr unit ratio
scalar Highway.eNodeB2.lteNic.mac tmsSMux:mean -nan
attr source tmsSMux
attr title "how many time TMS has coiche SMUX respect to the other, mean"
attr unit ratio
scalar Highway.eNodeB2.lteNic.mac tmsTxDiv:mean -nan
attr source tmsTxDiv
attr title "how many time TMS has coiche TxDIV respect to the other, mean"
attr unit ratio
scalar Highway.eNodeB2.lteNic.mac measuredItbs:mean -nan
attr source measuredItbs
attr title "TBS index, mean"
attr unit ""
scalar Highway.eNodeB2.lteNic.mac harqErrorRate_4th_D2D:mean -nan
attr source harqErrorRate_4th_D2D
attr title "Harq Error Rate D2D, mean"
attr unit ""
scalar Highway.eNodeB2.lteNic.mac harqErrorRate_4th_Dl:mean -nan
attr source harqErrorRate_4th_Dl
attr title "Harq Error Rate Dl, mean"
attr unit ""
scalar Highway.eNodeB2.lteNic.mac harqErrorRate_4th_Ul:mean -nan
attr source harqErrorRate_4th_Ul
attr title "Harq Error Rate Dl, mean"
attr unit ""
scalar Highway.eNodeB2.lteNic.mac harqErrorRate_3rd_D2D:mean -nan
attr source harqErrorRate_3rd_D2D
attr title "Harq Error Rate D2D, mean"
attr unit ""
scalar Highway.eNodeB2.lteNic.mac harqErrorRate_3rd_Dl:mean -nan
attr source harqErrorRate_3rd_Dl
attr title "Harq Error Rate Dl, mean"
attr unit ""
scalar Highway.eNodeB2.lteNic.mac harqErrorRate_3rd_Ul:mean -nan
attr source harqErrorRate_3rd_Ul
attr title "Harq Error Rate Dl, mean"
attr unit ""
scalar Highway.eNodeB2.lteNic.mac harqErrorRate_2nd_D2D:mean -nan
attr source harqErrorRate_2nd_D2D
attr title "Harq Error Rate D2D, mean"
attr unit ""
scalar Highway.eNodeB2.lteNic.mac harqErrorRate_2nd_Dl:mean -nan
attr source harqErrorRate_2nd_Dl
attr title "Harq Error Rate Dl, mean"
attr unit ""
scalar Highway.eNodeB2.lteNic.mac harqErrorRate_2nd_Ul:mean -nan
attr source harqErrorRate_2nd_Ul
attr title "Harq Error Rate Dl, mean"
attr unit ""
scalar Highway.eNodeB2.lteNic.mac harqErrorRate_1st_D2D:mean -nan
attr source harqErrorRate_1st_D2D
attr title "Harq Error Rate D2D, mean"
attr unit ""
scalar Highway.eNodeB2.lteNic.mac harqErrorRate_1st_Dl:mean -nan
attr source harqErrorRate_1st_Dl
attr title "Harq Error Rate Dl, mean"
attr unit ""
scalar Highway.eNodeB2.lteNic.mac harqErrorRate_1st_Ul:mean -nan
attr source harqErrorRate_1st_Ul
attr title "Harq Error Rate Dl, mean"
attr unit ""
scalar Highway.eNodeB2.lteNic.mac harqErrorRateD2D:mean -nan
attr source harqErrorRateD2D
attr title "Harq Error Rate D2D, mean"
attr unit ""
scalar Highway.eNodeB2.lteNic.mac harqErrorRateDl:mean -nan
attr source harqErrorRateDl
attr title "Harq Error Rate Dl, mean"
attr unit ""
scalar Highway.eNodeB2.lteNic.mac harqErrorRateUl:mean -nan
attr source harqErrorRateUl
attr title "Harq Error Rate Dl, mean"
attr unit ""
scalar Highway.eNodeB2.lteNic.mac macBufferOverFlowD2D:mean -nan
attr source macBufferOverFlowD2D
attr title "Mac buffer overflow as function of time, mean"
attr unit Byte/s
scalar Highway.eNodeB2.lteNic.mac macBufferOverFlowUl:mean -nan
attr source macBufferOverFlowUl
attr title "Mac buffer overflow as function of time, mean"
attr unit Byte/s
scalar Highway.eNodeB2.lteNic.mac macBufferOverFlowDl:mean -nan
attr source macBufferOverFlowDl
attr title "Mac buffer overflow as function of time, mean"
attr unit Byte/s
scalar Highway.eNodeB2.lteNic.mac macPacketLossD2D:mean -nan
attr source macPacketLossD2D
attr title "Mac Packet Loss D2D, mean"
attr unit ""
scalar Highway.eNodeB2.lteNic.mac macPacketLossDl:mean -nan
attr source macPacketLossDl
attr title "Mac Packet Loss, mean"
attr unit ""
scalar Highway.eNodeB2.lteNic.mac macPacketLossUl:mean -nan
attr source macPacketLossUl
attr title "Mac Packet Loss, mean"
attr unit ""
scalar Highway.eNodeB2.lteNic.mac macCellPacketLossD2D:mean -nan
attr source macCellPacketLossD2D
attr title "Mac Cell Packet Loss D2D, mean"
attr unit ""
scalar Highway.eNodeB2.lteNic.mac macCellPacketLossUl:mean -nan
attr source macCellPacketLossUl
attr title "Mac Cell Packet Loss, mean"
attr unit ""
scalar Highway.eNodeB2.lteNic.mac macCellPacketLossDl:mean -nan
attr source macCellPacketLossDl
attr title "Mac Cell Packet Loss, mean"
attr unit ""
scalar Highway.eNodeB2.lteNic.mac macCellThroughputD2D:mean -nan
attr source macCellThroughputD2D
attr title "Cell Throughput at the MAC layer D2D, mean"
attr unit Bps
scalar Highway.eNodeB2.lteNic.mac macCellThroughputDl:mean -nan
attr source macCellThroughputDl
attr title "Cell Throughput at the MAC layer DL, mean"
attr unit Bps
scalar Highway.eNodeB2.lteNic.mac macCellThroughputUl:mean -nan
attr source macCellThroughputUl
attr title "Cell Throughput at the MAC layer UL, mean"
attr unit Bps
scalar Highway.eNodeB2.lteNic.mac macThroughputD2D:mean -nan
attr source macThroughputD2D
attr title "Throughput at the MAC layer D2D, mean"
attr unit Bps
scalar Highway.eNodeB2.lteNic.mac macDelayD2D:mean -nan
attr source macDelayD2D
attr title "Delay at the MAC layer D2D, mean"
attr unit s
scalar Highway.eNodeB2.lteNic.mac macThroughputUl:mean -nan
attr source macThroughputUl
attr title "Throughput at the MAC layer UL, mean"
attr unit Bps
scalar Highway.eNodeB2.lteNic.mac macDelayUl:mean -nan
attr source macDelayUl
attr title "Delay at the MAC layer UL, mean"
attr unit s
scalar Highway.eNodeB2.lteNic.mac macThroughputDl:mean -nan
attr source macThroughputDl
attr title "Throughput at the MAC layer DL, mean"
attr unit Bps
scalar Highway.eNodeB2.lteNic.mac macDelayDl:mean -nan
attr source macDelayDl
attr title "Delay at the MAC layer UL, mean"
attr unit s
scalar Highway.eNodeB2.lteNic.mac sentPacketToLowerLayer:count 0
attr interpolationmode none
attr source sentPacketToLowerLayer
scalar Highway.eNodeB2.lteNic.mac sentPacketToLowerLayer:sum(packetBytes) 0
attr interpolationmode none
attr source sentPacketToLowerLayer
scalar Highway.eNodeB2.lteNic.mac sentPacketToUpperLayer:count 0
attr interpolationmode none
attr source sentPacketToUpperLayer
scalar Highway.eNodeB2.lteNic.mac sentPacketToUpperLayer:sum(packetBytes) 0
attr interpolationmode none
attr source sentPacketToUpperLayer
scalar Highway.eNodeB2.lteNic.mac receivedPacketFromLowerLayer:count 0
attr interpolationmode none
attr source receivedPacketFromLowerLayer
scalar Highway.eNodeB2.lteNic.mac receivedPacketFromLowerLayer:sum(packetBytes) 0
attr interpolationmode none
attr source receivedPacketFromLowerLayer
scalar Highway.eNodeB2.lteNic.mac receivedPacketFromUpperLayer:count 0
attr interpolationmode none
attr source receivedPacketFromUpperLayer
scalar Highway.eNodeB2.lteNic.mac receivedPacketFromUpperLayer:sum(packetBytes) 0
attr interpolationmode none
attr source receivedPacketFromUpperLayer
statistic Highway.eNodeB2.pppIf.queue queueingTime:histogram
field count 0
field mean -nan
field stddev -nan
field min -nan
field max -nan
field sum 0
field sqrsum 0
attr interpolationmode none
attr title "queueing time, histogram"
bin	-inf	0
bin	0	0
bin	1	0
scalar Highway.eNodeB2.pppIf.queue dropPk:count 0
attr interpolationmode none
attr source dropPkByQueue
attr title "dropped packets, count"
scalar Highway.eNodeB2.pppIf.queue dropPk:sum(packetBytes) 0
attr interpolationmode none
attr source dropPkByQueue
attr title "dropped packets, sum(packetBytes)"
scalar Highway.eNodeB2.pppIf.queue queueLength:max 0
attr interpolationmode sample-hold
attr title "queue length, max"
scalar Highway.eNodeB2.pppIf.queue queueLength:timeavg 0
attr interpolationmode sample-hold
attr title "queue length, timeavg"
scalar Highway.eNodeB2.pppIf.queue rcvdPk:count 0
attr interpolationmode none
attr title "received packets, count"
scalar Highway.eNodeB2.pppIf.queue rcvdPk:sum(packetBytes) 0
attr interpolationmode none
attr title "received packets, sum(packetBytes)"
scalar Highway.eNodeB2.pppIf.ppp txState:timeavg 0
attr interpolationmode sample-hold
attr title "tx state, timeavg"
scalar Highway.eNodeB2.pppIf.ppp droppedPkIfaceDown:count 0
attr interpolationmode none
attr source dropPkIfaceDown
attr title "packets dropped/interface down, count"
scalar Highway.eNodeB2.pppIf.ppp droppedPkIfaceDown:sum(packetBytes) 0
attr interpolationmode none
attr source dropPkIfaceDown
attr title "packets dropped/interface down, sum(packetBytes)"
scalar Highway.eNodeB2.pppIf.ppp droppedPkBitError:count 0
attr interpolationmode none
attr source dropPkBitError
attr title "packets dropped/bit error, count"
scalar Highway.eNodeB2.pppIf.ppp droppedPkBitError:sum(packetBytes) 0
attr interpolationmode none
attr source dropPkBitError
attr title "packets dropped/bit error, sum(packetBytes)"
scalar Highway.eNodeB2.pppIf.ppp rxPkOk:count 0
attr interpolationmode none
attr source rxPkOk
attr title "packets received OK, count"
scalar Highway.eNodeB2.pppIf.ppp rxPkOk:sum(packetBytes) 0
attr interpolationmode none
attr source rxPkOk
attr title "packets received OK, sum(packetBytes)"
scalar Highway.eNodeB2.pppIf.ppp txPk:count 0
attr interpolationmode none
attr source packetSentToLower
attr title "packets transmitted, count"
scalar Highway.eNodeB2.pppIf.ppp txPk:sum(packetBytes) 0
attr interpolationmode none
attr source packetSentToLower
attr title "packets transmitted, sum(packetBytes)"
scalar Highway.eNodeB2.pppIf.ppp rcvdPkFromHL:count 0
attr interpolationmode none
attr source packetReceivedFromUpper
attr title "packets received from higher layer, count"
scalar Highway.eNodeB2.pppIf.ppp rcvdPkFromHL:sum(packetBytes) 0
attr interpolationmode none
attr source packetReceivedFromUpper
attr title "packets received from higher layer, sum(packetBytes)"
scalar Highway.eNodeB2.pppIf.ppp passedUpPk:count 0
attr interpolationmode none
attr source packetSentToUpper
attr title "packets passed to higher layer, count"
scalar Highway.eNodeB2.pppIf.ppp passedUpPk:sum(packetBytes) 0
attr interpolationmode none
attr source packetSentToUpper
attr title "packets passed to higher layer, sum(packetBytes)"
statistic Highway.eNodeB2.x2ppp[0].queue queueingTime:histogram
field count 4
field mean 0
field stddev 0
field min 0
field max 0
field sum 0
field sqrsum 0
attr interpolationmode none
attr title "queueing time, histogram"
bin	-inf	0
bin	-0.5	0
bin	-0.48	0
bin	-0.46	0
bin	-0.44	0
bin	-0.42	0
bin	-0.4	0
bin	-0.38	0
bin	-0.36	0
bin	-0.34	0
bin	-0.32	0
bin	-0.3	0
bin	-0.28	0
bin	-0.26	0
bin	-0.24	0
bin	-0.22	0
bin	-0.2	0
bin	-0.18	0
bin	-0.16	0
bin	-0.14	0
bin	-0.12	0
bin	-0.1	0
bin	-0.08	0
bin	-0.06	0
bin	-0.04	0
bin	-0.02	0
bin	0	4
bin	0.02	0
bin	0.04	0
bin	0.06	0
bin	0.08	0
bin	0.1	0
bin	0.12	0
bin	0.14	0
bin	0.16	0
bin	0.18	0
bin	0.2	0
bin	0.22	0
bin	0.24	0
bin	0.26	0
bin	0.28	0
bin	0.3	0
bin	0.32	0
bin	0.34	0
bin	0.36	0
bin	0.38	0
bin	0.4	0
bin	0.42	0
bin	0.44	0
bin	0.46	0
bin	0.48	0
bin	0.5	0
scalar Highway.eNodeB2.x2ppp[0].queue dropPk:count 0
attr interpolationmode none
attr source dropPkByQueue
attr title "dropped packets, count"
scalar Highway.eNodeB2.x2ppp[0].queue dropPk:sum(packetBytes) 0
attr interpolationmode none
attr source dropPkByQueue
attr title "dropped packets, sum(packetBytes)"
scalar Highway.eNodeB2.x2ppp[0].queue queueLength:max 0
attr interpolationmode sample-hold
attr title "queue length, max"
scalar Highway.eNodeB2.x2ppp[0].queue queueLength:timeavg 0
attr interpolationmode sample-hold
attr title "queue length, timeavg"
scalar Highway.eNodeB2.x2ppp[0].queue rcvdPk:count 4
attr interpolationmode none
attr title "received packets, count"
scalar Highway.eNodeB2.x2ppp[0].queue rcvdPk:sum(packetBytes) 400
attr interpolationmode none
attr title "received packets, sum(packetBytes)"
scalar Highway.eNodeB2.x2ppp[0].ppp txState:timeavg 1.712e-08
attr interpolationmode sample-hold
attr title "tx state, timeavg"
scalar Highway.eNodeB2.x2ppp[0].ppp droppedPkIfaceDown:count 0
attr interpolationmode none
attr source dropPkIfaceDown
attr title "packets dropped/interface down, count"
scalar Highway.eNodeB2.x2ppp[0].ppp droppedPkIfaceDown:sum(packetBytes) 0
attr interpolationmode none
attr source dropPkIfaceDown
attr title "packets dropped/interface down, sum(packetBytes)"
scalar Highway.eNodeB2.x2ppp[0].ppp droppedPkBitError:count 0
attr interpolationmode none
attr source dropPkBitError
attr title "packets dropped/bit error, count"
scalar Highway.eNodeB2.x2ppp[0].ppp droppedPkBitError:sum(packetBytes) 0
attr interpolationmode none
attr source dropPkBitError
attr title "packets dropped/bit error, sum(packetBytes)"
scalar Highway.eNodeB2.x2ppp[0].ppp rxPkOk:count 4
attr interpolationmode none
attr source rxPkOk
attr title "packets received OK, count"
scalar Highway.eNodeB2.x2ppp[0].ppp rxPkOk:sum(packetBytes) 428
attr interpolationmode none
attr source rxPkOk
attr title "packets received OK, sum(packetBytes)"
scalar Highway.eNodeB2.x2ppp[0].ppp txPk:count 4
attr interpolationmode none
attr source packetSentToLower
attr title "packets transmitted, count"
scalar Highway.eNodeB2.x2ppp[0].ppp txPk:sum(packetBytes) 428
attr interpolationmode none
attr source packetSentToLower
attr title "packets transmitted, sum(packetBytes)"
scalar Highway.eNodeB2.x2ppp[0].ppp rcvdPkFromHL:count 4
attr interpolationmode none
attr source packetReceivedFromUpper
attr title "packets received from higher layer, count"
scalar Highway.eNodeB2.x2ppp[0].ppp rcvdPkFromHL:sum(packetBytes) 400
attr interpolationmode none
attr source packetReceivedFromUpper
attr title "packets received from higher layer, sum(packetBytes)"
scalar Highway.eNodeB2.x2ppp[0].ppp passedUpPk:count 4
attr interpolationmode none
attr source packetSentToUpper
attr title "packets passed to higher layer, count"
scalar Highway.eNodeB2.x2ppp[0].ppp passedUpPk:sum(packetBytes) 400
attr interpolationmode none
attr source packetSentToUpper
attr title "packets passed to higher layer, sum(packetBytes)"
scalar Highway.eNodeB2.networkLayer.arp failedARPResolution:count 0
attr title "ARP failed resolutions, count"
scalar Highway.eNodeB2.networkLayer.arp completedARPResolution:count 0
attr title "ARP completed resolutions, count"
scalar Highway.eNodeB2.networkLayer.arp initiatedARPResolution:count 0
attr title "ARP initiated resolutions, count"
scalar Highway.eNodeB2.networkLayer.arp sentReply:count 0
attr title "ARP replies sent, count"
scalar Highway.eNodeB2.networkLayer.arp sentReq:count 0
attr title "ARP request sent, count"
scalar Highway.eNodeB2.udp droppedPkBadChecksum:count 0
attr interpolationmode none
attr title "packets dropped (checksum error), count"
scalar Highway.eNodeB2.udp droppedPkWrongPort:count 0
attr interpolationmode none
attr title "packets dropped (wrong port), count"
scalar Highway.eNodeB2.udp passedUpPk:count 0
attr interpolationmode none
attr title "packets passed up, count"
scalar Highway.eNodeB2.udp rcvdPk:count 0
attr interpolationmode none
attr source rcvdPk
attr title "packets received, count"
scalar Highway.eNodeB2.udp rcvdPk:sum(packetBytes) 0
attr interpolationmode none
attr source rcvdPk
attr title "packets received, sum(packetBytes)"
scalar Highway.eNodeB2.udp sentPk:count 0
attr interpolationmode none
attr source sentPk
attr title "packets sent, count"
scalar Highway.eNodeB2.udp sentPk:sum(packetBytes) 0
attr interpolationmode none
attr source sentPk
attr title "packets sent, sum(packetBytes)"
scalar Highway.eNodeB2.x2App[0].client echoedPk:count 0
attr interpolationmode none
attr source echoedPk
attr title "packets echoed, count"
scalar Highway.eNodeB2.x2App[0].client echoedPk:sum(packetBytes) 0
attr interpolationmode none
attr source echoedPk
attr title "packets echoed, sum(packetBytes)"
scalar Highway.eNodeB2.x2App[0].client rcvdPk:count 0
attr interpolationmode none
attr source rcvdPk
attr title "packets received, count"
scalar Highway.eNodeB2.x2App[0].client rcvdPk:sum(packetBytes) 0
attr interpolationmode none
attr source rcvdPk
attr title "packets received, sum(packetBytes)"
scalar Highway.eNodeB2.x2App[0].client sentPk:count 0
attr interpolationmode none
attr source sentPk
attr title "packets sent, count"
scalar Highway.eNodeB2.x2App[0].client sentPk:sum(packetBytes) 0
attr interpolationmode none
attr source sentPk
attr title "packets sent, sum(packetBytes)"
scalar Highway.eNodeB2.x2App[0].server "bytes rcvd" 0
scalar Highway.eNodeB2.x2App[0].server throughput -nan

